
This summary file was generated by TurbSim (v1.40, 12-Sep-2008) on 21-May-2021 at 12:51:28.


Runtime Options:

  18573235  Random seed #1
    RANLUX  Random Number Generator Type
         F  Output binary HH turbulence parameters?
         F  Output formatted turbulence parameters?
         F  Output AeroDyn HH files?
         F  Output AeroDyn FF files?
         F  Output BLADED FF files?
         F  Output tower data?
         T  Output formatted FF files?
         F  Output coherent turbulence time step file?
         T  Clockwise rotation when looking downwind?
         T  Scale IEC turbulence models to specified hub-height standard deviation?


Turbine/Model Specifications:

        10  Vertical grid-point matrix dimension
        10  Horizontal grid-point matrix dimension
     0.050  Time step [seconds]
   200.000  Analysis time [seconds]
   200.000  Usable output time [seconds]
    80.000  Hub height [m]
   140.000  Grid height [m]
   140.000  Grid width [m]
     0.000  Vertical flow angle [degrees]
     0.000  Horizontal flow angle [degrees]


Meteorological Boundary Conditions:

    IECKAI  IEC Kaimal spectral model
         1  IEC standard: IEC 61400-1 Ed. 3: 2005
         B  IEC turbulence characteristic
       NTM  IEC Normal Turbulence Model
       N/A  IEC Extreme Turbulence Model (ETM) "c" parameter [m/s]
       IEC  Wind profile type
    80.000  Reference height [m]
    13.000  Reference wind speed [m/s]
       N/A  Jet height [m]
     0.200  Power law exponent
     0.030  Surface roughness length [m]


You have requested that the following file(s) be generated:

   TurbA_200sec_13ms.u (formatted full-field U-component file)
   TurbA_200sec_13ms.v (formatted full-field V-component file)
   TurbA_200sec_13ms.w (formatted full-field W-component file)


Turbulence Simulation Scaling Parameter Summary:

   Turbulence model used                            =  IEC Kaimal
   Turbulence characteristic                        =  B
   IEC turbulence type                              =  Normal Turbulence Model
   IEC standard                                     =  IEC 61400-1 Ed. 3: 2005
   Mean wind speed at hub height                    =   13.000 m/s
   Expected value of turbulence intensity at 15 m/s =   14.000%
   Characteristic value of standard deviation       =    2.149 m/s
   Turbulence scale                                 =   42.000 m
   u-component integral scale                       =  340.200 m
   Coherency scale                                  =  340.200 m
   Characteristic value of hub turbulence intensity =   16.531%
   Gradient Richardson number                       =    0.000

   Wind profile type                                =  Power law on rotor disk, logarithmic elsewhere
   Power law exponent                               =    0.200
   Mean shear across rotor disk                     =    0.044 (m/s)/m
   Assumed rotor diameter                           =  140.000 m
   Surface roughness length                         =    0.030 m

   Number of time steps in the FFT                  =     4224
   Number of time steps output                      =     4216


Mean Flow Angles:

   Vertical   =   0.0 degrees
   Horizontal =   0.0 degrees

Mean Wind Speed Profile:

   Height    Wind Speed   Horizontal Angle  U-comp (X)   V-comp (Y)   W-comp (Z)
     (m)        (m/s)         (degrees)       (m/s)        (m/s)        (m/s)   
   ------    ----------   ----------------  ----------   ----------   ----------
    150.0       14.74            0.00         14.74         0.00         0.00
    134.4       14.42            0.00         14.42         0.00         0.00
    118.9       14.07            0.00         14.07         0.00         0.00
    103.3       13.68            0.00         13.68         0.00         0.00
     87.8       13.24            0.00         13.24         0.00         0.00
     80.0       13.00            0.00         13.00         0.00         0.00
     72.2       12.74            0.00         12.74         0.00         0.00
     56.7       12.13            0.00         12.13         0.00         0.00
     41.1       11.38            0.00         11.38         0.00         0.00
     25.6       10.35            0.00         10.35         0.00         0.00
     10.0        8.58            0.00          8.58         0.00         0.00


Harvested Random Seeds after Generation of the Random Numbers:

      5946072 K1
            0 K2


Scaling statistics from the hub grid point:

  Component  Target Sigma (m/s)  Simulated Sigma (m/s)  Scaling Factor
  ---------  ------------------  ---------------------  --------------
     u'             2.149                1.728                1.244
     v'             1.719                1.638                1.050
     w'             1.074                1.042                1.031


Hub-Height Simulated Turbulence Statistical Summary:

   Type of Wind        Min (m/s)   Mean (m/s)    Max (m/s)  Sigma (m/s)       TI (%)
   ----------------    ---------   ----------    ---------  -----------       ------
   Longitudinal (u)         6.31        13.00        18.29        2.149       16.531
   Lateral (v)             -5.23         0.00         5.75        1.719       13.225
   Vertical (w)            -4.52         0.00         3.31        1.074        8.265
   U component              6.31        13.00        18.29        2.149       16.531
   V component             -5.23         0.00         5.75        1.719       13.225
   W component             -4.52         0.00         3.31        1.074        8.265
   Horizontal (U&V)         6.34        13.12        18.36        2.127       16.219
   Total                    6.39        13.16        18.38        2.120       16.104

                       Min Reynolds     Mean Reynolds    Max Reynolds    Correlation
   Product             Stress (m/s)^2   Stress (m/s)^2   Stress (m/s)^2  Coefficient
   ----------------    --------------   --------------   --------------  -----------
   u'w'                     -9.867             0.039            11.547         0.017
   u'v'                    -28.785            -1.272            14.415        -0.344
   v'w'                     -8.911            -0.125             7.359        -0.068

   Friction Velocity (Ustar)  =      0.198 m/s
   Maximum Instantaneous TKE  =     29.83 (m/s)^2
   Maximum Instantaneous CTKE =     14.50 (m/s)^2


Grid Point Variance Summary:

   Y-coord  -70.00  -54.44  -38.89  -23.33   -7.78    7.78   23.33   38.89   54.44   70.00

   Height   Standard deviation at grid points for the u component:
   150.00    2.369   2.503   2.740   2.764   2.356   2.778   2.634   2.422   2.489   2.626
   134.44    2.616   2.643   2.678   2.773   2.415   2.473   2.134   2.211   2.086   2.336
   118.89    2.456   2.799   2.515   2.686   2.563   2.488   2.365   1.880   1.984   2.253
   103.33    2.648   2.572   2.516   2.513   2.361   2.357   2.295   2.003   2.221   2.430
    87.78    2.576   2.394   2.272   2.247   2.433   2.124   2.338   2.346   2.506   2.538
    72.22    2.521   2.091   1.894   2.336   2.410   2.456   2.642   2.348   2.509   2.562
    56.67    2.390   2.668   2.505   2.394   2.371   2.088   2.244   2.330   2.440   2.335
    41.11    2.073   2.549   2.699   2.318   2.659   1.957   2.085   2.135   2.276   2.248
    25.56    2.465   2.222   2.765   2.523   2.792   2.449   2.177   1.802   2.252   2.186
    10.00    2.380   2.562   2.347   2.546   2.653   3.076   2.530   2.344   2.125   2.119

   Height   Standard deviation at grid points for the v component:
   150.00    1.719   1.719   1.719   1.719   1.719   1.719   1.719   1.719   1.719   1.719
   134.44    1.719   1.719   1.719   1.719   1.719   1.719   1.719   1.719   1.719   1.719
   118.89    1.719   1.719   1.719   1.719   1.719   1.719   1.719   1.719   1.719   1.719
   103.33    1.719   1.719   1.719   1.719   1.719   1.719   1.719   1.719   1.719   1.719
    87.78    1.719   1.719   1.719   1.719   1.719   1.719   1.719   1.719   1.719   1.719
    72.22    1.719   1.719   1.719   1.719   1.719   1.719   1.719   1.719   1.719   1.719
    56.67    1.719   1.719   1.719   1.719   1.719   1.719   1.719   1.719   1.719   1.719
    41.11    1.719   1.719   1.719   1.719   1.719   1.719   1.719   1.719   1.719   1.719
    25.56    1.719   1.719   1.719   1.719   1.719   1.719   1.719   1.719   1.719   1.719
    10.00    1.719   1.719   1.719   1.719   1.719   1.719   1.719   1.719   1.719   1.719

   Height   Standard deviation at grid points for the w component:
   150.00    1.074   1.074   1.074   1.074   1.074   1.074   1.074   1.074   1.074   1.074
   134.44    1.074   1.074   1.074   1.074   1.074   1.074   1.074   1.074   1.074   1.074
   118.89    1.074   1.074   1.074   1.074   1.074   1.074   1.074   1.074   1.074   1.074
   103.33    1.074   1.074   1.074   1.074   1.074   1.074   1.074   1.074   1.074   1.074
    87.78    1.074   1.074   1.074   1.074   1.074   1.074   1.074   1.074   1.074   1.074
    72.22    1.074   1.074   1.074   1.074   1.074   1.074   1.074   1.074   1.074   1.074
    56.67    1.074   1.074   1.074   1.075   1.074   1.074   1.074   1.074   1.074   1.074
    41.11    1.074   1.074   1.074   1.074   1.074   1.074   1.074   1.074   1.074   1.074
    25.56    1.074   1.074   1.074   1.074   1.074   1.074   1.074   1.074   1.074   1.074
    10.00    1.074   1.074   1.074   1.074   1.074   1.074   1.074   1.074   1.074   1.074

Nyquist frequency of turbulent wind field =        10.000 Hz


Processing complete.  1.2031 CPU seconds used.
