
This summary file was generated by TurbSim (v1.40, 12-Sep-2008) on 21-May-2021 at 12:51:25.


Runtime Options:

  18573235  Random seed #1
    RANLUX  Random Number Generator Type
         F  Output binary HH turbulence parameters?
         F  Output formatted turbulence parameters?
         F  Output AeroDyn HH files?
         F  Output AeroDyn FF files?
         F  Output BLADED FF files?
         F  Output tower data?
         T  Output formatted FF files?
         F  Output coherent turbulence time step file?
         T  Clockwise rotation when looking downwind?
         T  Scale IEC turbulence models to specified hub-height standard deviation?


Turbine/Model Specifications:

        10  Vertical grid-point matrix dimension
        10  Horizontal grid-point matrix dimension
     0.050  Time step [seconds]
   200.000  Analysis time [seconds]
   200.000  Usable output time [seconds]
    80.000  Hub height [m]
   140.000  Grid height [m]
   140.000  Grid width [m]
     0.000  Vertical flow angle [degrees]
     0.000  Horizontal flow angle [degrees]


Meteorological Boundary Conditions:

    IECKAI  IEC Kaimal spectral model
         1  IEC standard: IEC 61400-1 Ed. 3: 2005
         B  IEC turbulence characteristic
       NTM  IEC Normal Turbulence Model
       N/A  IEC Extreme Turbulence Model (ETM) "c" parameter [m/s]
       IEC  Wind profile type
    80.000  Reference height [m]
     7.000  Reference wind speed [m/s]
       N/A  Jet height [m]
     0.200  Power law exponent
     0.030  Surface roughness length [m]


You have requested that the following file(s) be generated:

   TurbA_200sec_7ms.u (formatted full-field U-component file)
   TurbA_200sec_7ms.v (formatted full-field V-component file)
   TurbA_200sec_7ms.w (formatted full-field W-component file)


Turbulence Simulation Scaling Parameter Summary:

   Turbulence model used                            =  IEC Kaimal
   Turbulence characteristic                        =  B
   IEC turbulence type                              =  Normal Turbulence Model
   IEC standard                                     =  IEC 61400-1 Ed. 3: 2005
   Mean wind speed at hub height                    =    7.000 m/s
   Expected value of turbulence intensity at 15 m/s =   14.000%
   Characteristic value of standard deviation       =    1.519 m/s
   Turbulence scale                                 =   42.000 m
   u-component integral scale                       =  340.200 m
   Coherency scale                                  =  340.200 m
   Characteristic value of hub turbulence intensity =   21.700%
   Gradient Richardson number                       =    0.000

   Wind profile type                                =  Power law on rotor disk, logarithmic elsewhere
   Power law exponent                               =    0.200
   Mean shear across rotor disk                     =    0.024 (m/s)/m
   Assumed rotor diameter                           =  140.000 m
   Surface roughness length                         =    0.030 m

   Number of time steps in the FFT                  =     4400
   Number of time steps output                      =     4400


Mean Flow Angles:

   Vertical   =   0.0 degrees
   Horizontal =   0.0 degrees

Mean Wind Speed Profile:

   Height    Wind Speed   Horizontal Angle  U-comp (X)   V-comp (Y)   W-comp (Z)
     (m)        (m/s)         (degrees)       (m/s)        (m/s)        (m/s)   
   ------    ----------   ----------------  ----------   ----------   ----------
    150.0        7.94            0.00          7.94         0.00         0.00
    134.4        7.77            0.00          7.77         0.00         0.00
    118.9        7.58            0.00          7.58         0.00         0.00
    103.3        7.37            0.00          7.37         0.00         0.00
     87.8        7.13            0.00          7.13         0.00         0.00
     80.0        7.00            0.00          7.00         0.00         0.00
     72.2        6.86            0.00          6.86         0.00         0.00
     56.7        6.53            0.00          6.53         0.00         0.00
     41.1        6.13            0.00          6.13         0.00         0.00
     25.6        5.57            0.00          5.57         0.00         0.00
     10.0        4.62            0.00          4.62         0.00         0.00


Harvested Random Seeds after Generation of the Random Numbers:

      6193825 K1
            0 K2


Scaling statistics from the hub grid point:

  Component  Target Sigma (m/s)  Simulated Sigma (m/s)  Scaling Factor
  ---------  ------------------  ---------------------  --------------
     u'             1.519                1.028                1.478
     v'             1.215                1.127                1.078
     w'             0.759                0.736                1.032


Hub-Height Simulated Turbulence Statistical Summary:

   Type of Wind        Min (m/s)   Mean (m/s)    Max (m/s)  Sigma (m/s)       TI (%)
   ----------------    ---------   ----------    ---------  -----------       ------
   Longitudinal (u)         3.16         7.00        11.27        1.519       21.700
   Lateral (v)             -3.24         0.00         3.37        1.215       17.360
   Vertical (w)            -2.14         0.00         3.10        0.759       10.850
   U component              3.16         7.00        11.27        1.519       21.700
   V component             -3.24         0.00         3.37        1.215       17.360
   W component             -2.14         0.00         3.10        0.759       10.850
   Horizontal (U&V)         3.18         7.11        11.51        1.516       21.332
   Total                    3.29         7.15        11.54        1.510       21.134

                       Min Reynolds     Mean Reynolds    Max Reynolds    Correlation
   Product             Stress (m/s)^2   Stress (m/s)^2   Stress (m/s)^2  Coefficient
   ----------------    --------------   --------------   --------------  -----------
   u'w'                     -4.879             0.142             6.957         0.123
   u'v'                    -10.522            -0.144             7.230        -0.078
   v'w'                     -4.011             0.043             6.871         0.046

   Friction Velocity (Ustar)  =      0.377 m/s
   Maximum Instantaneous TKE  =     12.20 (m/s)^2
   Maximum Instantaneous CTKE =      5.40 (m/s)^2


Grid Point Variance Summary:

   Y-coord  -70.00  -54.44  -38.89  -23.33   -7.78    7.78   23.33   38.89   54.44   70.00

   Height   Standard deviation at grid points for the u component:
   150.00    1.642   1.495   1.601   1.397   1.674   1.818   1.825   1.711   1.779   1.823
   134.44    1.496   1.699   1.532   1.720   1.778   1.376   1.699   1.391   1.894   1.916
   118.89    1.475   1.641   1.324   1.621   1.652   1.880   1.803   1.813   2.078   2.117
   103.33    1.338   1.466   1.419   1.649   1.835   1.629   1.675   1.727   1.882   1.627
    87.78    1.558   1.282   1.557   1.439   1.812   1.336   1.441   1.578   1.796   1.455
    72.22    1.382   1.656   2.029   1.743   1.871   1.489   1.656   1.667   1.948   1.541
    56.67    1.454   1.719   2.010   2.276   1.935   1.666   1.625   1.739   1.781   2.138
    41.11    1.540   1.819   1.833   2.123   1.695   1.783   1.600   1.969   1.830   1.911
    25.56    1.837   1.945   1.927   2.102   1.553   2.087   2.161   2.028   2.062   1.995
    10.00    1.864   1.993   2.304   2.176   1.642   1.902   2.271   2.326   1.798   2.134

   Height   Standard deviation at grid points for the v component:
   150.00    1.215   1.215   1.215   1.215   1.215   1.215   1.215   1.215   1.215   1.215
   134.44    1.215   1.215   1.215   1.215   1.215   1.215   1.215   1.215   1.215   1.215
   118.89    1.215   1.215   1.215   1.215   1.215   1.215   1.215   1.215   1.215   1.215
   103.33    1.215   1.215   1.215   1.215   1.215   1.215   1.215   1.215   1.215   1.215
    87.78    1.215   1.215   1.215   1.215   1.215   1.215   1.215   1.215   1.215   1.215
    72.22    1.215   1.215   1.215   1.215   1.215   1.215   1.215   1.215   1.215   1.215
    56.67    1.215   1.215   1.215   1.215   1.215   1.215   1.215   1.215   1.215   1.215
    41.11    1.215   1.215   1.215   1.215   1.215   1.215   1.215   1.215   1.215   1.215
    25.56    1.215   1.215   1.215   1.215   1.215   1.215   1.215   1.215   1.215   1.215
    10.00    1.215   1.215   1.215   1.215   1.215   1.215   1.215   1.215   1.215   1.215

   Height   Standard deviation at grid points for the w component:
   150.00    0.759   0.760   0.759   0.759   0.759   0.760   0.759   0.759   0.759   0.759
   134.44    0.759   0.759   0.760   0.759   0.759   0.759   0.759   0.759   0.759   0.759
   118.89    0.759   0.759   0.760   0.759   0.759   0.760   0.760   0.759   0.759   0.759
   103.33    0.759   0.759   0.759   0.759   0.759   0.759   0.759   0.759   0.759   0.759
    87.78    0.760   0.759   0.759   0.759   0.759   0.759   0.759   0.760   0.759   0.759
    72.22    0.759   0.759   0.759   0.759   0.759   0.759   0.759   0.759   0.759   0.760
    56.67    0.760   0.759   0.759   0.760   0.759   0.759   0.760   0.759   0.759   0.759
    41.11    0.759   0.759   0.759   0.759   0.759   0.759   0.759   0.759   0.759   0.759
    25.56    0.759   0.759   0.759   0.759   0.759   0.759   0.760   0.759   0.759   0.760
    10.00    0.759   0.759   0.759   0.759   0.759   0.759   0.759   0.759   0.759   0.759

Nyquist frequency of turbulent wind field =        10.000 Hz


Processing complete.  1.1406 CPU seconds used.
