
This summary file was generated by TurbSim (v1.40, 12-Sep-2008) on 27-May-2021 at 14:31:05.


Runtime Options:

  18573235  Random seed #1
    RANLUX  Random Number Generator Type
         F  Output binary HH turbulence parameters?
         F  Output formatted turbulence parameters?
         F  Output AeroDyn HH files?
         F  Output AeroDyn FF files?
         F  Output BLADED FF files?
         F  Output tower data?
         T  Output formatted FF files?
         F  Output coherent turbulence time step file?
         T  Clockwise rotation when looking downwind?
         T  Scale IEC turbulence models to specified hub-height standard deviation?


Turbine/Model Specifications:

        10  Vertical grid-point matrix dimension
        10  Horizontal grid-point matrix dimension
     0.050  Time step [seconds]
   200.000  Analysis time [seconds]
   200.000  Usable output time [seconds]
    89.600  Hub height [m]
   140.000  Grid height [m]
   140.000  Grid width [m]
     0.000  Vertical flow angle [degrees]
     0.000  Horizontal flow angle [degrees]


Meteorological Boundary Conditions:

    IECKAI  IEC Kaimal spectral model
         1  IEC standard: IEC 61400-1 Ed. 3: 2005
         B  IEC turbulence characteristic
    1EWM50  IEC Extreme 50-Year Wind Speed Model
       N/A  IEC Extreme Turbulence Model (ETM) "c" parameter [m/s]
       IEC  Wind profile type
    89.600  Reference height [m]
       N/A  Reference wind speed [m/s]
       N/A  Jet height [m]
       N/A  Power law exponent
     0.030  Surface roughness length [m]


You have requested that the following file(s) be generated:

   TurbA_XTRM.u (formatted full-field U-component file)
   TurbA_XTRM.v (formatted full-field V-component file)
   TurbA_XTRM.w (formatted full-field W-component file)


Turbulence Simulation Scaling Parameter Summary:

   Turbulence model used                            =  IEC Kaimal
   Turbulence characteristic                        =  1B
   IEC turbulence type                              =  Extreme 50-Year Wind Speed Model
   Reference wind speed average over 10 minutes     =   50.000 m/s
   Annual wind speed average at hub height          =   10.000 m/s
   IEC standard                                     =  IEC 61400-1 Ed. 3: 2005
   Mean wind speed at hub height                    =   50.000 m/s
   Expected value of turbulence intensity at 15 m/s =   14.000%
   Characteristic value of standard deviation       =    5.500 m/s
   Turbulence scale                                 =   42.000 m
   u-component integral scale                       =  340.200 m
   Coherency scale                                  =  340.200 m
   Characteristic value of hub turbulence intensity =   11.000%
   Gradient Richardson number                       =    0.000

   Wind profile type                                =  Power law on rotor disk, logarithmic elsewhere
   Power law exponent                               =    0.110
   Mean shear across rotor disk                     =    0.078 (m/s)/m
   Assumed rotor diameter                           =  140.000 m
   Surface roughness length                         =    0.030 m

   Number of time steps in the FFT                  =     4056
   Number of time steps output                      =     4056


Mean Flow Angles:

   Vertical   =   0.0 degrees
   Horizontal =   0.0 degrees

Mean Wind Speed Profile:

   Height    Wind Speed   Horizontal Angle  U-comp (X)   V-comp (Y)   W-comp (Z)
     (m)        (m/s)         (degrees)       (m/s)        (m/s)        (m/s)   
   ------    ----------   ----------------  ----------   ----------   ----------
    159.6       53.28            0.00         53.28         0.00         0.00
    144.0       52.68            0.00         52.68         0.00         0.00
    128.5       52.02            0.00         52.02         0.00         0.00
    112.9       51.29            0.00         51.29         0.00         0.00
     97.4       50.46            0.00         50.46         0.00         0.00
     89.6       50.00            0.00         50.00         0.00         0.00
     81.8       49.50            0.00         49.50         0.00         0.00
     66.3       48.37            0.00         48.37         0.00         0.00
     50.7       46.97            0.00         46.97         0.00         0.00
     35.2       45.11            0.00         45.11         0.00         0.00
     19.6       42.30            0.00         42.30         0.00         0.00


Harvested Random Seeds after Generation of the Random Numbers:

      5709481 K1
            0 K2


Scaling statistics from the hub grid point:

  Component  Target Sigma (m/s)  Simulated Sigma (m/s)  Scaling Factor
  ---------  ------------------  ---------------------  --------------
     u'             5.500                5.683                0.968
     v'             4.400                4.267                1.031
     w'             2.750                2.609                1.054


Hub-Height Simulated Turbulence Statistical Summary:

   Type of Wind        Min (m/s)   Mean (m/s)    Max (m/s)  Sigma (m/s)       TI (%)
   ----------------    ---------   ----------    ---------  -----------       ------
   Longitudinal (u)        33.15        50.00        65.53        5.500       11.000
   Lateral (v)            -15.19         0.00        14.77        4.400        8.800
   Vertical (w)            -8.99         0.00         8.89        2.750        5.500
   U component             33.15        50.00        65.53        5.500       11.000
   V component            -15.19         0.00        14.77        4.400        8.800
   W component             -8.99         0.00         8.89        2.750        5.500
   Horizontal (U&V)        33.16        50.20        65.85        5.476       10.910
   Total                   33.28        50.27        66.05        5.479       10.899

                       Min Reynolds     Mean Reynolds    Max Reynolds    Correlation
   Product             Stress (m/s)^2   Stress (m/s)^2   Stress (m/s)^2  Coefficient
   ----------------    --------------   --------------   --------------  -----------
   u'w'                   -123.557            -1.251            68.333        -0.083
   u'v'                   -152.722             3.659           147.540         0.151
   v'w'                    -89.198            -1.132            68.409        -0.094

   Friction Velocity (Ustar)  =      1.118 m/s
   Maximum Instantaneous TKE  =    165.54 (m/s)^2
   Maximum Instantaneous CTKE =     84.49 (m/s)^2


Grid Point Variance Summary:

   Y-coord  -70.00  -54.44  -38.89  -23.33   -7.78    7.78   23.33   38.89   54.44   70.00

   Height   Standard deviation at grid points for the u component:
   159.60    5.232   5.307   5.149   5.667   5.802   5.476   5.270   5.536   5.352   4.812
   144.04    5.431   5.536   5.213   5.286   5.200   5.725   5.680   5.524   5.459   5.007
   128.49    5.316   5.331   5.221   4.895   4.747   5.212   5.636   5.807   5.587   5.245
   112.93    5.076   5.459   5.338   5.205   5.163   5.471   5.475   5.608   5.376   5.222
    97.38    5.221   5.276   4.885   5.251   5.492   5.488   5.425   5.501   5.154   4.994
    81.82    5.138   4.709   5.162   5.555   5.644   5.804   5.277   5.148   4.970   5.086
    66.27    4.995   5.118   5.199   5.520   5.978   5.793   5.357   5.092   4.936   4.913
    50.71    5.205   5.188   5.145   5.828   5.776   5.478   5.644   5.133   5.144   4.628
    35.16    5.296   5.501   5.476   5.713   5.365   5.633   5.495   5.529   5.340   4.842
    19.60    5.102   5.384   5.613   5.455   5.342   5.351   5.119   4.871   5.364   4.945

   Height   Standard deviation at grid points for the v component:
   159.60    4.400   4.400   4.400   4.400   4.400   4.400   4.400   4.400   4.400   4.400
   144.04    4.400   4.400   4.400   4.400   4.400   4.400   4.400   4.400   4.400   4.400
   128.49    4.400   4.400   4.400   4.400   4.400   4.400   4.400   4.400   4.400   4.400
   112.93    4.400   4.400   4.400   4.400   4.400   4.400   4.400   4.400   4.400   4.400
    97.38    4.400   4.400   4.400   4.400   4.400   4.400   4.400   4.400   4.400   4.400
    81.82    4.400   4.400   4.400   4.400   4.400   4.400   4.400   4.400   4.400   4.400
    66.27    4.400   4.400   4.400   4.400   4.400   4.400   4.400   4.400   4.400   4.400
    50.71    4.400   4.400   4.400   4.400   4.400   4.400   4.400   4.400   4.400   4.400
    35.16    4.400   4.400   4.400   4.400   4.400   4.400   4.400   4.400   4.400   4.400
    19.60    4.400   4.400   4.400   4.400   4.400   4.400   4.400   4.400   4.400   4.400

   Height   Standard deviation at grid points for the w component:
   159.60    2.750   2.750   2.750   2.750   2.750   2.750   2.750   2.750   2.750   2.750
   144.04    2.750   2.750   2.750   2.750   2.750   2.750   2.750   2.750   2.750   2.750
   128.49    2.750   2.750   2.750   2.750   2.750   2.750   2.750   2.750   2.750   2.750
   112.93    2.750   2.750   2.750   2.750   2.750   2.750   2.750   2.750   2.750   2.750
    97.38    2.750   2.750   2.750   2.750   2.750   2.750   2.750   2.750   2.750   2.750
    81.82    2.750   2.750   2.750   2.750   2.750   2.750   2.750   2.750   2.750   2.750
    66.27    2.750   2.750   2.750   2.750   2.750   2.750   2.750   2.750   2.750   2.750
    50.71    2.750   2.750   2.750   2.750   2.750   2.750   2.750   2.750   2.750   2.750
    35.16    2.750   2.750   2.750   2.750   2.750   2.750   2.750   2.750   2.750   2.750
    19.60    2.750   2.750   2.750   2.750   2.750   2.750   2.750   2.750   2.750   2.750

Nyquist frequency of turbulent wind field =        10.000 Hz


Processing complete.  5.7031 CPU seconds used.
