
This summary file was generated by TurbSim (v1.40, 12-Sep-2008) on 27-May-2021 at 12:56:48.


Runtime Options:

  18573235  Random seed #1
    RANLUX  Random Number Generator Type
         F  Output binary HH turbulence parameters?
         F  Output formatted turbulence parameters?
         F  Output AeroDyn HH files?
         F  Output AeroDyn FF files?
         F  Output BLADED FF files?
         F  Output tower data?
         T  Output formatted FF files?
         F  Output coherent turbulence time step file?
         T  Clockwise rotation when looking downwind?
         T  Scale IEC turbulence models to specified hub-height standard deviation?


Turbine/Model Specifications:

        10  Vertical grid-point matrix dimension
        10  Horizontal grid-point matrix dimension
     0.050  Time step [seconds]
   200.000  Analysis time [seconds]
   200.000  Usable output time [seconds]
    80.000  Hub height [m]
   140.000  Grid height [m]
   140.000  Grid width [m]
     0.000  Vertical flow angle [degrees]
     0.000  Horizontal flow angle [degrees]


Meteorological Boundary Conditions:

    IECKAI  IEC Kaimal spectral model
         1  IEC standard: IEC 61400-1 Ed. 3: 2005
         B  IEC turbulence characteristic
       NTM  IEC Normal Turbulence Model
       N/A  IEC Extreme Turbulence Model (ETM) "c" parameter [m/s]
       IEC  Wind profile type
    80.000  Reference height [m]
    15.000  Reference wind speed [m/s]
       N/A  Jet height [m]
     0.200  Power law exponent
     0.030  Surface roughness length [m]


You have requested that the following file(s) be generated:

   TurbA_200sec_15ms.u (formatted full-field U-component file)
   TurbA_200sec_15ms.v (formatted full-field V-component file)
   TurbA_200sec_15ms.w (formatted full-field W-component file)


Turbulence Simulation Scaling Parameter Summary:

   Turbulence model used                            =  IEC Kaimal
   Turbulence characteristic                        =  B
   IEC turbulence type                              =  Normal Turbulence Model
   IEC standard                                     =  IEC 61400-1 Ed. 3: 2005
   Mean wind speed at hub height                    =   15.000 m/s
   Expected value of turbulence intensity at 15 m/s =   14.000%
   Characteristic value of standard deviation       =    2.359 m/s
   Turbulence scale                                 =   42.000 m
   u-component integral scale                       =  340.200 m
   Coherency scale                                  =  340.200 m
   Characteristic value of hub turbulence intensity =   15.727%
   Gradient Richardson number                       =    0.000

   Wind profile type                                =  Power law on rotor disk, logarithmic elsewhere
   Power law exponent                               =    0.200
   Mean shear across rotor disk                     =    0.051 (m/s)/m
   Assumed rotor diameter                           =  140.000 m
   Surface roughness length                         =    0.030 m

   Number of time steps in the FFT                  =     4200
   Number of time steps output                      =     4187


Mean Flow Angles:

   Vertical   =   0.0 degrees
   Horizontal =   0.0 degrees

Mean Wind Speed Profile:

   Height    Wind Speed   Horizontal Angle  U-comp (X)   V-comp (Y)   W-comp (Z)
     (m)        (m/s)         (degrees)       (m/s)        (m/s)        (m/s)   
   ------    ----------   ----------------  ----------   ----------   ----------
    150.0       17.01            0.00         17.01         0.00         0.00
    134.4       16.64            0.00         16.64         0.00         0.00
    118.9       16.24            0.00         16.24         0.00         0.00
    103.3       15.79            0.00         15.79         0.00         0.00
     87.8       15.28            0.00         15.28         0.00         0.00
     80.0       15.00            0.00         15.00         0.00         0.00
     72.2       14.70            0.00         14.70         0.00         0.00
     56.7       14.00            0.00         14.00         0.00         0.00
     41.1       13.13            0.00         13.13         0.00         0.00
     25.6       11.94            0.00         11.94         0.00         0.00
     10.0        9.90            0.00          9.90         0.00         0.00


Harvested Random Seeds after Generation of the Random Numbers:

      5912188 K1
            0 K2


Scaling statistics from the hub grid point:

  Component  Target Sigma (m/s)  Simulated Sigma (m/s)  Scaling Factor
  ---------  ------------------  ---------------------  --------------
     u'             2.359                1.653                1.427
     v'             1.887                1.806                1.045
     w'             1.179                1.143                1.032


Hub-Height Simulated Turbulence Statistical Summary:

   Type of Wind        Min (m/s)   Mean (m/s)    Max (m/s)  Sigma (m/s)       TI (%)
   ----------------    ---------   ----------    ---------  -----------       ------
   Longitudinal (u)         7.09        15.00        20.93        2.359       15.727
   Lateral (v)             -5.87         0.00         5.23        1.887       12.581
   Vertical (w)            -3.90         0.00         3.94        1.179        7.863
   U component              7.09        15.00        20.93        2.359       15.727
   V component             -5.87         0.00         5.23        1.887       12.581
   W component             -3.90         0.00         3.94        1.179        7.863
   Horizontal (U&V)         7.38        15.13        21.12        2.277       15.047
   Total                    7.41        15.18        21.28        2.274       14.981

                       Min Reynolds     Mean Reynolds    Max Reynolds    Correlation
   Product             Stress (m/s)^2   Stress (m/s)^2   Stress (m/s)^2  Coefficient
   ----------------    --------------   --------------   --------------  -----------
   u'w'                    -21.173            -0.423            15.215        -0.152
   u'v'                    -23.538             0.652            34.911         0.146
   v'w'                     -9.203            -0.025            11.375        -0.011

   Friction Velocity (Ustar)  =      0.651 m/s
   Maximum Instantaneous TKE  =     35.50 (m/s)^2
   Maximum Instantaneous CTKE =     17.73 (m/s)^2


Grid Point Variance Summary:

   Y-coord  -70.00  -54.44  -38.89  -23.33   -7.78    7.78   23.33   38.89   54.44   70.00

   Height   Standard deviation at grid points for the u component:
   150.00    3.067   3.335   2.859   2.764   2.972   3.119   2.884   3.143   3.120   3.197
   134.44    2.903   3.203   2.935   3.086   2.854   2.791   2.526   2.878   3.367   3.214
   118.89    2.883   2.638   2.472   2.614   2.762   2.667   2.836   2.935   2.964   2.662
   103.33    2.683   2.359   2.342   2.499   2.545   2.454   2.420   2.603   2.518   2.696
    87.78    2.582   2.281   2.343   2.318   2.365   2.351   2.613   2.380   2.609   2.563
    72.22    2.582   2.524   2.690   2.769   2.671   2.771   2.134   2.481   2.797   2.515
    56.67    2.855   3.290   3.015   3.251   3.175   2.397   2.404   2.521   2.698   2.650
    41.11    3.218   3.732   3.632   3.433   3.397   2.647   2.702   2.367   2.476   2.501
    25.56    2.677   3.516   3.701   3.530   3.726   3.259   2.425   2.810   2.585   2.256
    10.00    3.035   3.313   3.356   3.715   3.354   2.912   3.081   2.841   2.754   2.444

   Height   Standard deviation at grid points for the v component:
   150.00    1.887   1.887   1.887   1.887   1.887   1.887   1.887   1.887   1.887   1.887
   134.44    1.887   1.887   1.887   1.887   1.887   1.887   1.887   1.887   1.887   1.887
   118.89    1.887   1.887   1.887   1.887   1.887   1.887   1.887   1.887   1.887   1.887
   103.33    1.887   1.887   1.887   1.887   1.887   1.887   1.887   1.887   1.887   1.887
    87.78    1.887   1.887   1.887   1.887   1.887   1.887   1.887   1.887   1.887   1.887
    72.22    1.887   1.887   1.887   1.887   1.887   1.887   1.887   1.887   1.887   1.887
    56.67    1.887   1.887   1.887   1.887   1.887   1.887   1.887   1.887   1.887   1.887
    41.11    1.887   1.887   1.887   1.887   1.887   1.887   1.887   1.887   1.887   1.887
    25.56    1.887   1.887   1.887   1.887   1.887   1.887   1.887   1.887   1.887   1.887
    10.00    1.887   1.887   1.887   1.887   1.887   1.887   1.887   1.887   1.887   1.887

   Height   Standard deviation at grid points for the w component:
   150.00    1.179   1.179   1.179   1.179   1.179   1.179   1.179   1.179   1.179   1.179
   134.44    1.179   1.179   1.179   1.179   1.179   1.179   1.179   1.179   1.179   1.179
   118.89    1.179   1.179   1.179   1.179   1.179   1.179   1.179   1.179   1.179   1.179
   103.33    1.179   1.179   1.179   1.179   1.179   1.179   1.179   1.179   1.179   1.179
    87.78    1.179   1.179   1.179   1.179   1.179   1.179   1.179   1.179   1.179   1.179
    72.22    1.179   1.179   1.179   1.179   1.179   1.179   1.179   1.179   1.179   1.179
    56.67    1.179   1.179   1.179   1.179   1.179   1.179   1.179   1.179   1.179   1.179
    41.11    1.179   1.179   1.179   1.179   1.179   1.179   1.179   1.179   1.179   1.179
    25.56    1.179   1.179   1.179   1.179   1.179   1.179   1.179   1.179   1.179   1.179
    10.00    1.179   1.179   1.179   1.179   1.179   1.179   1.179   1.179   1.179   1.179

Nyquist frequency of turbulent wind field =        10.000 Hz


Processing complete.  4.6562 CPU seconds used.
