
This summary file was generated by TurbSim (v1.40, 12-Sep-2008) on 27-May-2021 at 12:56:38.


Runtime Options:

  18573235  Random seed #1
    RANLUX  Random Number Generator Type
         F  Output binary HH turbulence parameters?
         F  Output formatted turbulence parameters?
         F  Output AeroDyn HH files?
         F  Output AeroDyn FF files?
         F  Output BLADED FF files?
         F  Output tower data?
         T  Output formatted FF files?
         F  Output coherent turbulence time step file?
         T  Clockwise rotation when looking downwind?
         T  Scale IEC turbulence models to specified hub-height standard deviation?


Turbine/Model Specifications:

        10  Vertical grid-point matrix dimension
        10  Horizontal grid-point matrix dimension
     0.050  Time step [seconds]
   200.000  Analysis time [seconds]
   200.000  Usable output time [seconds]
    80.000  Hub height [m]
   140.000  Grid height [m]
   140.000  Grid width [m]
     0.000  Vertical flow angle [degrees]
     0.000  Horizontal flow angle [degrees]


Meteorological Boundary Conditions:

    IECKAI  IEC Kaimal spectral model
         1  IEC standard: IEC 61400-1 Ed. 3: 2005
         B  IEC turbulence characteristic
       NTM  IEC Normal Turbulence Model
       N/A  IEC Extreme Turbulence Model (ETM) "c" parameter [m/s]
       IEC  Wind profile type
    80.000  Reference height [m]
    11.000  Reference wind speed [m/s]
       N/A  Jet height [m]
     0.200  Power law exponent
     0.030  Surface roughness length [m]


You have requested that the following file(s) be generated:

   TurbA_200sec_11ms.u (formatted full-field U-component file)
   TurbA_200sec_11ms.v (formatted full-field V-component file)
   TurbA_200sec_11ms.w (formatted full-field W-component file)


Turbulence Simulation Scaling Parameter Summary:

   Turbulence model used                            =  IEC Kaimal
   Turbulence characteristic                        =  B
   IEC turbulence type                              =  Normal Turbulence Model
   IEC standard                                     =  IEC 61400-1 Ed. 3: 2005
   Mean wind speed at hub height                    =   11.000 m/s
   Expected value of turbulence intensity at 15 m/s =   14.000%
   Characteristic value of standard deviation       =    1.939 m/s
   Turbulence scale                                 =   42.000 m
   u-component integral scale                       =  340.200 m
   Coherency scale                                  =  340.200 m
   Characteristic value of hub turbulence intensity =   17.627%
   Gradient Richardson number                       =    0.000

   Wind profile type                                =  Power law on rotor disk, logarithmic elsewhere
   Power law exponent                               =    0.200
   Mean shear across rotor disk                     =    0.037 (m/s)/m
   Assumed rotor diameter                           =  140.000 m
   Surface roughness length                         =    0.030 m

   Number of time steps in the FFT                  =     4256
   Number of time steps output                      =     4255


Mean Flow Angles:

   Vertical   =   0.0 degrees
   Horizontal =   0.0 degrees

Mean Wind Speed Profile:

   Height    Wind Speed   Horizontal Angle  U-comp (X)   V-comp (Y)   W-comp (Z)
     (m)        (m/s)         (degrees)       (m/s)        (m/s)        (m/s)   
   ------    ----------   ----------------  ----------   ----------   ----------
    150.0       12.47            0.00         12.47         0.00         0.00
    134.4       12.20            0.00         12.20         0.00         0.00
    118.9       11.91            0.00         11.91         0.00         0.00
    103.3       11.58            0.00         11.58         0.00         0.00
     87.8       11.21            0.00         11.21         0.00         0.00
     80.0       11.00            0.00         11.00         0.00         0.00
     72.2       10.78            0.00         10.78         0.00         0.00
     56.7       10.27            0.00         10.27         0.00         0.00
     41.1        9.63            0.00          9.63         0.00         0.00
     25.6        8.76            0.00          8.76         0.00         0.00
     10.0        7.26            0.00          7.26         0.00         0.00


Harvested Random Seeds after Generation of the Random Numbers:

      5991118 K1
            0 K2


Scaling statistics from the hub grid point:

  Component  Target Sigma (m/s)  Simulated Sigma (m/s)  Scaling Factor
  ---------  ------------------  ---------------------  --------------
     u'             1.939                2.112                0.918
     v'             1.551                1.469                1.056
     w'             0.970                0.941                1.030


Hub-Height Simulated Turbulence Statistical Summary:

   Type of Wind        Min (m/s)   Mean (m/s)    Max (m/s)  Sigma (m/s)       TI (%)
   ----------------    ---------   ----------    ---------  -----------       ------
   Longitudinal (u)         5.71        11.00        16.68        1.939       17.627
   Lateral (v)             -4.90         0.00         4.21        1.551       14.102
   Vertical (w)            -3.48         0.00         3.09        0.970        8.814
   U component              5.71        11.00        16.68        1.939       17.627
   V component             -4.90         0.00         4.21        1.551       14.102
   W component             -3.48         0.00         3.09        0.970        8.814
   Horizontal (U&V)         5.96        11.11        16.76        1.911       17.195
   Total                    6.08        11.16        16.81        1.899       17.018

                       Min Reynolds     Mean Reynolds    Max Reynolds    Correlation
   Product             Stress (m/s)^2   Stress (m/s)^2   Stress (m/s)^2  Coefficient
   ----------------    --------------   --------------   --------------  -----------
   u'w'                     -7.867             0.305            11.766         0.162
   u'v'                    -18.413            -0.966            12.199        -0.321
   v'w'                     -8.227            -0.059             7.358        -0.039

   Friction Velocity (Ustar)  =      0.552 m/s
   Maximum Instantaneous TKE  =     20.04 (m/s)^2
   Maximum Instantaneous CTKE =     10.46 (m/s)^2


Grid Point Variance Summary:

   Y-coord  -70.00  -54.44  -38.89  -23.33   -7.78    7.78   23.33   38.89   54.44   70.00

   Height   Standard deviation at grid points for the u component:
   150.00    1.547   1.432   1.608   1.515   1.601   1.594   1.526   1.423   1.496   1.636
   134.44    1.789   1.692   1.532   1.706   1.740   1.410   1.433   1.584   1.506   1.756
   118.89    1.833   1.708   1.644   1.618   1.556   1.437   1.368   1.564   1.613   1.706
   103.33    1.881   1.896   1.787   1.858   1.671   1.675   1.398   1.392   1.489   1.719
    87.78    1.542   1.629   1.858   1.894   2.042   1.517   1.533   1.271   1.468   1.700
    72.22    1.588   1.876   1.607   1.587   1.790   1.669   1.507   1.667   1.732   1.596
    56.67    1.551   1.801   1.811   1.745   1.731   1.581   1.659   1.658   1.614   1.616
    41.11    1.456   1.704   1.943   1.913   1.843   1.653   1.512   1.695   1.470   1.608
    25.56    1.178   1.371   1.552   1.841   1.690   1.605   1.491   1.662   1.567   1.522
    10.00    1.559   1.734   1.607   1.722   1.772   1.900   1.661   1.522   1.487   1.342

   Height   Standard deviation at grid points for the v component:
   150.00    1.551   1.551   1.551   1.551   1.551   1.551   1.551   1.551   1.551   1.551
   134.44    1.551   1.551   1.551   1.551   1.551   1.551   1.551   1.551   1.551   1.551
   118.89    1.551   1.551   1.551   1.551   1.551   1.551   1.551   1.551   1.551   1.551
   103.33    1.551   1.551   1.551   1.551   1.551   1.551   1.551   1.551   1.551   1.551
    87.78    1.551   1.551   1.551   1.551   1.551   1.551   1.551   1.551   1.551   1.551
    72.22    1.551   1.551   1.551   1.551   1.551   1.551   1.551   1.551   1.551   1.551
    56.67    1.551   1.551   1.551   1.551   1.551   1.551   1.551   1.551   1.551   1.551
    41.11    1.551   1.551   1.551   1.551   1.551   1.551   1.551   1.551   1.551   1.551
    25.56    1.551   1.551   1.551   1.551   1.551   1.551   1.551   1.551   1.551   1.551
    10.00    1.551   1.551   1.551   1.551   1.551   1.551   1.551   1.551   1.551   1.551

   Height   Standard deviation at grid points for the w component:
   150.00    0.970   0.970   0.970   0.970   0.969   0.970   0.970   0.970   0.970   0.970
   134.44    0.970   0.970   0.970   0.970   0.970   0.970   0.970   0.970   0.970   0.970
   118.89    0.970   0.970   0.970   0.970   0.970   0.970   0.970   0.970   0.970   0.970
   103.33    0.970   0.970   0.970   0.970   0.970   0.970   0.970   0.970   0.970   0.970
    87.78    0.970   0.970   0.970   0.970   0.970   0.970   0.970   0.970   0.970   0.970
    72.22    0.970   0.970   0.970   0.970   0.970   0.970   0.970   0.970   0.970   0.970
    56.67    0.969   0.970   0.970   0.970   0.970   0.970   0.970   0.970   0.970   0.970
    41.11    0.970   0.970   0.970   0.970   0.970   0.970   0.970   0.970   0.970   0.970
    25.56    0.970   0.970   0.970   0.970   0.970   0.970   0.970   0.970   0.970   0.970
    10.00    0.970   0.970   0.970   0.970   0.970   0.970   0.970   0.970   0.970   0.970

Nyquist frequency of turbulent wind field =        10.000 Hz


Processing complete.  4.3906 CPU seconds used.
