
This summary file was generated by TurbSim (v1.40, 12-Sep-2008) on 27-May-2021 at 12:56:34.


Runtime Options:

  18573235  Random seed #1
    RANLUX  Random Number Generator Type
         F  Output binary HH turbulence parameters?
         F  Output formatted turbulence parameters?
         F  Output AeroDyn HH files?
         F  Output AeroDyn FF files?
         F  Output BLADED FF files?
         F  Output tower data?
         T  Output formatted FF files?
         F  Output coherent turbulence time step file?
         T  Clockwise rotation when looking downwind?
         T  Scale IEC turbulence models to specified hub-height standard deviation?


Turbine/Model Specifications:

        10  Vertical grid-point matrix dimension
        10  Horizontal grid-point matrix dimension
     0.050  Time step [seconds]
   200.000  Analysis time [seconds]
   200.000  Usable output time [seconds]
    80.000  Hub height [m]
   140.000  Grid height [m]
   140.000  Grid width [m]
     0.000  Vertical flow angle [degrees]
     0.000  Horizontal flow angle [degrees]


Meteorological Boundary Conditions:

    IECKAI  IEC Kaimal spectral model
         1  IEC standard: IEC 61400-1 Ed. 3: 2005
         B  IEC turbulence characteristic
       NTM  IEC Normal Turbulence Model
       N/A  IEC Extreme Turbulence Model (ETM) "c" parameter [m/s]
       IEC  Wind profile type
    80.000  Reference height [m]
     9.000  Reference wind speed [m/s]
       N/A  Jet height [m]
     0.200  Power law exponent
     0.030  Surface roughness length [m]


You have requested that the following file(s) be generated:

   TurbA_200sec_9ms.u (formatted full-field U-component file)
   TurbA_200sec_9ms.v (formatted full-field V-component file)
   TurbA_200sec_9ms.w (formatted full-field W-component file)


Turbulence Simulation Scaling Parameter Summary:

   Turbulence model used                            =  IEC Kaimal
   Turbulence characteristic                        =  B
   IEC turbulence type                              =  Normal Turbulence Model
   IEC standard                                     =  IEC 61400-1 Ed. 3: 2005
   Mean wind speed at hub height                    =    9.000 m/s
   Expected value of turbulence intensity at 15 m/s =   14.000%
   Characteristic value of standard deviation       =    1.729 m/s
   Turbulence scale                                 =   42.000 m
   u-component integral scale                       =  340.200 m
   Coherency scale                                  =  340.200 m
   Characteristic value of hub turbulence intensity =   19.211%
   Gradient Richardson number                       =    0.000

   Wind profile type                                =  Power law on rotor disk, logarithmic elsewhere
   Power law exponent                               =    0.200
   Mean shear across rotor disk                     =    0.030 (m/s)/m
   Assumed rotor diameter                           =  140.000 m
   Surface roughness length                         =    0.030 m

   Number of time steps in the FFT                  =     4312
   Number of time steps output                      =     4312


Mean Flow Angles:

   Vertical   =   0.0 degrees
   Horizontal =   0.0 degrees

Mean Wind Speed Profile:

   Height    Wind Speed   Horizontal Angle  U-comp (X)   V-comp (Y)   W-comp (Z)
     (m)        (m/s)         (degrees)       (m/s)        (m/s)        (m/s)   
   ------    ----------   ----------------  ----------   ----------   ----------
    150.0       10.21            0.00         10.21         0.00         0.00
    134.4        9.98            0.00          9.98         0.00         0.00
    118.9        9.74            0.00          9.74         0.00         0.00
    103.3        9.47            0.00          9.47         0.00         0.00
     87.8        9.17            0.00          9.17         0.00         0.00
     80.0        9.00            0.00          9.00         0.00         0.00
     72.2        8.82            0.00          8.82         0.00         0.00
     56.7        8.40            0.00          8.40         0.00         0.00
     41.1        7.88            0.00          7.88         0.00         0.00
     25.6        7.16            0.00          7.16         0.00         0.00
     10.0        5.94            0.00          5.94         0.00         0.00


Harvested Random Seeds after Generation of the Random Numbers:

      6069849 K1
            0 K2


Scaling statistics from the hub grid point:

  Component  Target Sigma (m/s)  Simulated Sigma (m/s)  Scaling Factor
  ---------  ------------------  ---------------------  --------------
     u'             1.729                1.500                1.153
     v'             1.383                1.299                1.065
     w'             0.864                0.839                1.031


Hub-Height Simulated Turbulence Statistical Summary:

   Type of Wind        Min (m/s)   Mean (m/s)    Max (m/s)  Sigma (m/s)       TI (%)
   ----------------    ---------   ----------    ---------  -----------       ------
   Longitudinal (u)         4.06         9.00        12.76        1.729       19.211
   Lateral (v)             -4.52         0.00         3.70        1.383       15.369
   Vertical (w)            -2.95         0.00         2.71        0.864        9.606
   U component              4.06         9.00        12.76        1.729       19.211
   V component             -4.52         0.00         3.70        1.383       15.369
   W component             -2.95         0.00         2.71        0.864        9.606
   Horizontal (U&V)         4.08         9.11        12.76        1.694       18.594
   Total                    4.08         9.15        12.78        1.687       18.430

                       Min Reynolds     Mean Reynolds    Max Reynolds    Correlation
   Product             Stress (m/s)^2   Stress (m/s)^2   Stress (m/s)^2  Coefficient
   ----------------    --------------   --------------   --------------  -----------
   u'w'                     -6.034             0.356            10.289         0.238
   u'v'                     -7.395             0.487            10.298         0.204
   v'w'                     -5.866            -0.014             6.442        -0.012

   Friction Velocity (Ustar)  =      0.597 m/s
   Maximum Instantaneous TKE  =     12.31 (m/s)^2
   Maximum Instantaneous CTKE =      5.65 (m/s)^2


Grid Point Variance Summary:

   Y-coord  -70.00  -54.44  -38.89  -23.33   -7.78    7.78   23.33   38.89   54.44   70.00

   Height   Standard deviation at grid points for the u component:
   150.00    1.698   1.556   1.669   1.745   1.485   1.222   1.395   1.338   1.041   1.163
   134.44    1.504   1.568   1.586   1.587   1.759   1.616   1.358   1.131   1.239   1.262
   118.89    1.407   1.273   1.553   1.722   1.670   1.667   1.699   1.433   1.183   1.330
   103.33    1.486   1.708   1.873   1.733   1.639   1.498   1.636   1.548   1.543   1.455
    87.78    1.571   2.035   2.224   2.199   1.739   1.647   1.634   1.574   1.792   1.418
    72.22    1.850   1.967   2.060   2.205   1.892   1.807   1.785   1.845   1.596   1.429
    56.67    1.673   1.987   1.939   1.752   1.760   1.769   1.722   1.507   1.686   1.521
    41.11    1.998   1.877   1.928   1.755   1.765   2.056   1.811   1.337   1.567   1.603
    25.56    1.887   1.922   1.866   1.840   1.646   1.668   1.719   1.514   1.688   1.672
    10.00    1.708   1.707   1.738   1.957   2.133   1.708   1.406   1.455   1.526   1.278

   Height   Standard deviation at grid points for the v component:
   150.00    1.383   1.383   1.383   1.383   1.383   1.383   1.383   1.383   1.383   1.383
   134.44    1.383   1.383   1.383   1.383   1.383   1.383   1.383   1.383   1.383   1.383
   118.89    1.383   1.383   1.383   1.383   1.383   1.383   1.383   1.383   1.383   1.383
   103.33    1.383   1.383   1.383   1.383   1.383   1.383   1.383   1.383   1.383   1.383
    87.78    1.383   1.383   1.383   1.383   1.383   1.383   1.383   1.383   1.383   1.383
    72.22    1.383   1.383   1.383   1.383   1.383   1.383   1.383   1.383   1.383   1.383
    56.67    1.383   1.383   1.383   1.383   1.383   1.383   1.383   1.383   1.383   1.383
    41.11    1.383   1.383   1.383   1.383   1.383   1.383   1.383   1.383   1.383   1.383
    25.56    1.383   1.383   1.383   1.383   1.383   1.383   1.383   1.383   1.383   1.383
    10.00    1.383   1.383   1.383   1.383   1.383   1.383   1.383   1.383   1.383   1.383

   Height   Standard deviation at grid points for the w component:
   150.00    0.865   0.865   0.865   0.864   0.865   0.865   0.865   0.865   0.865   0.865
   134.44    0.865   0.865   0.864   0.865   0.865   0.865   0.865   0.865   0.865   0.865
   118.89    0.865   0.865   0.865   0.865   0.865   0.865   0.865   0.865   0.865   0.865
   103.33    0.865   0.865   0.865   0.865   0.865   0.864   0.865   0.865   0.865   0.865
    87.78    0.865   0.865   0.865   0.865   0.865   0.865   0.865   0.864   0.865   0.865
    72.22    0.865   0.865   0.865   0.865   0.865   0.865   0.865   0.865   0.865   0.864
    56.67    0.865   0.865   0.865   0.865   0.865   0.865   0.865   0.865   0.865   0.865
    41.11    0.865   0.865   0.865   0.865   0.865   0.865   0.865   0.865   0.865   0.865
    25.56    0.865   0.865   0.865   0.865   0.865   0.865   0.865   0.865   0.865   0.865
    10.00    0.865   0.865   0.865   0.865   0.865   0.865   0.865   0.865   0.865   0.865

Nyquist frequency of turbulent wind field =        10.000 Hz


Processing complete.  4.2656 CPU seconds used.
