
This summary file was generated by TurbSim (v1.40, 12-Sep-2008) on 27-May-2021 at 14:31:19.


Runtime Options:

  18573235  Random seed #1
    RANLUX  Random Number Generator Type
         F  Output binary HH turbulence parameters?
         F  Output formatted turbulence parameters?
         F  Output AeroDyn HH files?
         F  Output AeroDyn FF files?
         F  Output BLADED FF files?
         F  Output tower data?
         T  Output formatted FF files?
         F  Output coherent turbulence time step file?
         T  Clockwise rotation when looking downwind?
         T  Scale IEC turbulence models to specified hub-height standard deviation?


Turbine/Model Specifications:

        10  Vertical grid-point matrix dimension
        10  Horizontal grid-point matrix dimension
     0.050  Time step [seconds]
   200.000  Analysis time [seconds]
   200.000  Usable output time [seconds]
    89.600  Hub height [m]
   140.000  Grid height [m]
   140.000  Grid width [m]
     0.000  Vertical flow angle [degrees]
     0.000  Horizontal flow angle [degrees]


Meteorological Boundary Conditions:

    IECKAI  IEC Kaimal spectral model
         1  IEC standard: IEC 61400-1 Ed. 3: 2005
         B  IEC turbulence characteristic
       NTM  IEC Normal Turbulence Model
       N/A  IEC Extreme Turbulence Model (ETM) "c" parameter [m/s]
       IEC  Wind profile type
    89.600  Reference height [m]
     7.000  Reference wind speed [m/s]
       N/A  Jet height [m]
     0.200  Power law exponent
     0.030  Surface roughness length [m]


You have requested that the following file(s) be generated:

   TurbA_200sec_7ms.u (formatted full-field U-component file)
   TurbA_200sec_7ms.v (formatted full-field V-component file)
   TurbA_200sec_7ms.w (formatted full-field W-component file)


Turbulence Simulation Scaling Parameter Summary:

   Turbulence model used                            =  IEC Kaimal
   Turbulence characteristic                        =  B
   IEC turbulence type                              =  Normal Turbulence Model
   IEC standard                                     =  IEC 61400-1 Ed. 3: 2005
   Mean wind speed at hub height                    =    7.000 m/s
   Expected value of turbulence intensity at 15 m/s =   14.000%
   Characteristic value of standard deviation       =    1.519 m/s
   Turbulence scale                                 =   42.000 m
   u-component integral scale                       =  340.200 m
   Coherency scale                                  =  340.200 m
   Characteristic value of hub turbulence intensity =   21.700%
   Gradient Richardson number                       =    0.000

   Wind profile type                                =  Power law on rotor disk, logarithmic elsewhere
   Power law exponent                               =    0.200
   Mean shear across rotor disk                     =    0.017 (m/s)/m
   Assumed rotor diameter                           =  140.000 m
   Surface roughness length                         =    0.030 m

   Number of time steps in the FFT                  =     4400
   Number of time steps output                      =     4400


Mean Flow Angles:

   Vertical   =   0.0 degrees
   Horizontal =   0.0 degrees

Mean Wind Speed Profile:

   Height    Wind Speed   Horizontal Angle  U-comp (X)   V-comp (Y)   W-comp (Z)
     (m)        (m/s)         (degrees)       (m/s)        (m/s)        (m/s)   
   ------    ----------   ----------------  ----------   ----------   ----------
    159.6        7.86            0.00          7.86         0.00         0.00
    144.0        7.70            0.00          7.70         0.00         0.00
    128.5        7.52            0.00          7.52         0.00         0.00
    112.9        7.33            0.00          7.33         0.00         0.00
     97.4        7.12            0.00          7.12         0.00         0.00
     89.6        7.00            0.00          7.00         0.00         0.00
     81.8        6.87            0.00          6.87         0.00         0.00
     66.3        6.59            0.00          6.59         0.00         0.00
     50.7        6.25            0.00          6.25         0.00         0.00
     35.2        5.81            0.00          5.81         0.00         0.00
     19.6        5.17            0.00          5.17         0.00         0.00


Harvested Random Seeds after Generation of the Random Numbers:

      6193825 K1
            0 K2


Scaling statistics from the hub grid point:

  Component  Target Sigma (m/s)  Simulated Sigma (m/s)  Scaling Factor
  ---------  ------------------  ---------------------  --------------
     u'             1.519                1.028                1.478
     v'             1.215                1.127                1.078
     w'             0.759                0.736                1.032


Hub-Height Simulated Turbulence Statistical Summary:

   Type of Wind        Min (m/s)   Mean (m/s)    Max (m/s)  Sigma (m/s)       TI (%)
   ----------------    ---------   ----------    ---------  -----------       ------
   Longitudinal (u)         3.16         7.00        11.27        1.519       21.700
   Lateral (v)             -3.24         0.00         3.37        1.215       17.360
   Vertical (w)            -2.14         0.00         3.10        0.759       10.850
   U component              3.16         7.00        11.27        1.519       21.700
   V component             -3.24         0.00         3.37        1.215       17.360
   W component             -2.14         0.00         3.10        0.759       10.850
   Horizontal (U&V)         3.18         7.11        11.51        1.516       21.332
   Total                    3.29         7.15        11.54        1.510       21.134

                       Min Reynolds     Mean Reynolds    Max Reynolds    Correlation
   Product             Stress (m/s)^2   Stress (m/s)^2   Stress (m/s)^2  Coefficient
   ----------------    --------------   --------------   --------------  -----------
   u'w'                     -4.879             0.142             6.957         0.123
   u'v'                    -10.522            -0.144             7.230        -0.078
   v'w'                     -4.011             0.043             6.871         0.046

   Friction Velocity (Ustar)  =      0.377 m/s
   Maximum Instantaneous TKE  =     12.20 (m/s)^2
   Maximum Instantaneous CTKE =      5.40 (m/s)^2


Grid Point Variance Summary:

   Y-coord  -70.00  -54.44  -38.89  -23.33   -7.78    7.78   23.33   38.89   54.44   70.00

   Height   Standard deviation at grid points for the u component:
   159.60    1.642   1.495   1.601   1.397   1.674   1.818   1.825   1.711   1.779   1.823
   144.04    1.496   1.699   1.532   1.720   1.778   1.376   1.699   1.391   1.894   1.916
   128.49    1.475   1.641   1.324   1.621   1.652   1.880   1.803   1.813   2.078   2.117
   112.93    1.338   1.466   1.419   1.649   1.835   1.629   1.675   1.727   1.882   1.627
    97.38    1.558   1.282   1.557   1.439   1.812   1.336   1.441   1.578   1.796   1.455
    81.82    1.382   1.656   2.029   1.743   1.871   1.489   1.656   1.667   1.948   1.541
    66.27    1.454   1.719   2.010   2.276   1.935   1.666   1.625   1.739   1.781   2.138
    50.71    1.540   1.819   1.833   2.123   1.695   1.783   1.600   1.969   1.830   1.911
    35.16    1.837   1.945   1.927   2.102   1.553   2.087   2.161   2.028   2.062   1.995
    19.60    1.864   1.993   2.304   2.176   1.642   1.902   2.271   2.326   1.798   2.134

   Height   Standard deviation at grid points for the v component:
   159.60    1.215   1.215   1.215   1.215   1.215   1.215   1.215   1.215   1.215   1.215
   144.04    1.215   1.215   1.215   1.215   1.215   1.215   1.215   1.215   1.215   1.215
   128.49    1.215   1.215   1.215   1.215   1.215   1.215   1.215   1.215   1.215   1.215
   112.93    1.215   1.215   1.215   1.215   1.215   1.215   1.215   1.215   1.215   1.215
    97.38    1.215   1.215   1.215   1.215   1.215   1.215   1.215   1.215   1.215   1.215
    81.82    1.215   1.215   1.215   1.215   1.215   1.215   1.215   1.215   1.215   1.215
    66.27    1.215   1.215   1.215   1.215   1.215   1.215   1.215   1.215   1.215   1.215
    50.71    1.215   1.215   1.215   1.215   1.215   1.215   1.215   1.215   1.215   1.215
    35.16    1.215   1.215   1.215   1.215   1.215   1.215   1.215   1.215   1.215   1.215
    19.60    1.215   1.215   1.215   1.215   1.215   1.215   1.215   1.215   1.215   1.215

   Height   Standard deviation at grid points for the w component:
   159.60    0.759   0.760   0.759   0.759   0.759   0.760   0.759   0.759   0.759   0.759
   144.04    0.759   0.759   0.760   0.759   0.759   0.759   0.759   0.759   0.759   0.759
   128.49    0.759   0.759   0.760   0.759   0.759   0.760   0.760   0.759   0.759   0.759
   112.93    0.759   0.759   0.759   0.759   0.759   0.759   0.759   0.759   0.759   0.759
    97.38    0.760   0.759   0.759   0.759   0.759   0.759   0.759   0.760   0.759   0.759
    81.82    0.759   0.759   0.759   0.759   0.759   0.759   0.759   0.759   0.759   0.760
    66.27    0.760   0.759   0.759   0.760   0.759   0.759   0.760   0.759   0.759   0.759
    50.71    0.759   0.759   0.759   0.759   0.759   0.759   0.759   0.759   0.759   0.759
    35.16    0.759   0.759   0.759   0.759   0.759   0.759   0.760   0.759   0.759   0.760
    19.60    0.759   0.759   0.759   0.759   0.759   0.759   0.759   0.759   0.759   0.759

Nyquist frequency of turbulent wind field =        10.000 Hz


Processing complete.  3.9375 CPU seconds used.
