
This summary file was generated by TurbSim (v1.40, 12-Sep-2008) on 27-May-2021 at 14:32:06.


Runtime Options:

  18573235  Random seed #1
    RANLUX  Random Number Generator Type
         F  Output binary HH turbulence parameters?
         F  Output formatted turbulence parameters?
         F  Output AeroDyn HH files?
         F  Output AeroDyn FF files?
         F  Output BLADED FF files?
         F  Output tower data?
         T  Output formatted FF files?
         F  Output coherent turbulence time step file?
         T  Clockwise rotation when looking downwind?
         T  Scale IEC turbulence models to specified hub-height standard deviation?


Turbine/Model Specifications:

        10  Vertical grid-point matrix dimension
        10  Horizontal grid-point matrix dimension
     0.050  Time step [seconds]
   200.000  Analysis time [seconds]
   200.000  Usable output time [seconds]
    89.600  Hub height [m]
   140.000  Grid height [m]
   140.000  Grid width [m]
     0.000  Vertical flow angle [degrees]
     0.000  Horizontal flow angle [degrees]


Meteorological Boundary Conditions:

    IECKAI  IEC Kaimal spectral model
         1  IEC standard: IEC 61400-1 Ed. 3: 2005
         B  IEC turbulence characteristic
       NTM  IEC Normal Turbulence Model
       N/A  IEC Extreme Turbulence Model (ETM) "c" parameter [m/s]
       IEC  Wind profile type
    89.600  Reference height [m]
    25.000  Reference wind speed [m/s]
       N/A  Jet height [m]
     0.200  Power law exponent
     0.030  Surface roughness length [m]


You have requested that the following file(s) be generated:

   TurbA_200sec_25ms.u (formatted full-field U-component file)
   TurbA_200sec_25ms.v (formatted full-field V-component file)
   TurbA_200sec_25ms.w (formatted full-field W-component file)


Turbulence Simulation Scaling Parameter Summary:

   Turbulence model used                            =  IEC Kaimal
   Turbulence characteristic                        =  B
   IEC turbulence type                              =  Normal Turbulence Model
   IEC standard                                     =  IEC 61400-1 Ed. 3: 2005
   Mean wind speed at hub height                    =   25.000 m/s
   Expected value of turbulence intensity at 15 m/s =   14.000%
   Characteristic value of standard deviation       =    3.409 m/s
   Turbulence scale                                 =   42.000 m
   u-component integral scale                       =  340.200 m
   Coherency scale                                  =  340.200 m
   Characteristic value of hub turbulence intensity =   13.636%
   Gradient Richardson number                       =    0.000

   Wind profile type                                =  Power law on rotor disk, logarithmic elsewhere
   Power law exponent                               =    0.200
   Mean shear across rotor disk                     =    0.060 (m/s)/m
   Assumed rotor diameter                           =  140.000 m
   Surface roughness length                         =    0.030 m

   Number of time steps in the FFT                  =     4116
   Number of time steps output                      =     4112


Mean Flow Angles:

   Vertical   =   0.0 degrees
   Horizontal =   0.0 degrees

Mean Wind Speed Profile:

   Height    Wind Speed   Horizontal Angle  U-comp (X)   V-comp (Y)   W-comp (Z)
     (m)        (m/s)         (degrees)       (m/s)        (m/s)        (m/s)   
   ------    ----------   ----------------  ----------   ----------   ----------
    159.6       28.06            0.00         28.06         0.00         0.00
    144.0       27.49            0.00         27.49         0.00         0.00
    128.5       26.87            0.00         26.87         0.00         0.00
    112.9       26.18            0.00         26.18         0.00         0.00
     97.4       25.42            0.00         25.42         0.00         0.00
     89.6       25.00            0.00         25.00         0.00         0.00
     81.8       24.55            0.00         24.55         0.00         0.00
     66.3       23.54            0.00         23.54         0.00         0.00
     50.7       22.31            0.00         22.31         0.00         0.00
     35.2       20.73            0.00         20.73         0.00         0.00
     19.6       18.45            0.00         18.45         0.00         0.00


Harvested Random Seeds after Generation of the Random Numbers:

      5793992 K1
            0 K2


Scaling statistics from the hub grid point:

  Component  Target Sigma (m/s)  Simulated Sigma (m/s)  Scaling Factor
  ---------  ------------------  ---------------------  --------------
     u'             3.409                3.609                0.945
     v'             2.727                2.635                1.035
     w'             1.704                1.643                1.038


Hub-Height Simulated Turbulence Statistical Summary:

   Type of Wind        Min (m/s)   Mean (m/s)    Max (m/s)  Sigma (m/s)       TI (%)
   ----------------    ---------   ----------    ---------  -----------       ------
   Longitudinal (u)        16.25        25.00        34.47        3.409       13.636
   Lateral (v)             -9.31         0.00         8.79        2.727       10.909
   Vertical (w)            -5.72         0.00         5.78        1.705        6.818
   U component             16.25        25.00        34.47        3.409       13.636
   V component             -9.31         0.00         8.79        2.727       10.909
   W component             -5.72         0.00         5.78        1.705        6.818
   Horizontal (U&V)        16.80        25.16        34.47        3.356       13.342
   Total                   16.81        25.21        34.47        3.352       13.295

                       Min Reynolds     Mean Reynolds    Max Reynolds    Correlation
   Product             Stress (m/s)^2   Stress (m/s)^2   Stress (m/s)^2  Coefficient
   ----------------    --------------   --------------   --------------  -----------
   u'w'                    -29.043             0.547            36.093         0.094
   u'v'                    -36.974             2.598            71.355         0.279
   v'w'                    -18.666             0.152            35.076         0.033

   Friction Velocity (Ustar)  =      0.740 m/s
   Maximum Instantaneous TKE  =     80.26 (m/s)^2
   Maximum Instantaneous CTKE =     43.66 (m/s)^2


Grid Point Variance Summary:

   Y-coord  -70.00  -54.44  -38.89  -23.33   -7.78    7.78   23.33   38.89   54.44   70.00

   Height   Standard deviation at grid points for the u component:
   159.60    3.448   3.530   3.742   3.548   3.441   3.403   3.745   3.502   3.693   3.561
   144.04    3.894   4.008   3.644   3.495   3.265   3.431   3.384   3.512   3.817   3.348
   128.49    4.011   4.021   3.666   3.318   3.238   3.187   3.298   3.334   3.333   3.188
   112.93    3.733   3.857   3.780   3.453   3.441   3.076   3.044   3.158   3.027   2.995
    97.38    3.343   3.430   3.208   3.347   3.446   3.598   3.405   3.035   3.244   3.140
    81.82    3.243   3.312   3.202   3.047   3.436   3.445   3.140   3.395   3.020   3.029
    66.27    3.147   3.288   3.222   3.111   3.006   3.263   3.288   3.073   3.212   3.254
    50.71    3.292   3.390   3.288   2.981   2.903   3.165   3.400   3.095   3.267   3.438
    35.16    3.172   3.079   3.069   3.195   2.981   3.028   2.838   2.937   3.518   3.372
    19.60    3.004   2.939   2.590   3.006   3.127   2.971   3.141   3.527   3.649   3.246

   Height   Standard deviation at grid points for the v component:
   159.60    2.727   2.727   2.727   2.727   2.727   2.727   2.727   2.727   2.727   2.727
   144.04    2.727   2.727   2.727   2.727   2.727   2.727   2.727   2.727   2.727   2.727
   128.49    2.727   2.727   2.727   2.727   2.727   2.727   2.727   2.727   2.727   2.727
   112.93    2.727   2.727   2.727   2.727   2.727   2.727   2.727   2.727   2.727   2.727
    97.38    2.727   2.727   2.727   2.727   2.727   2.727   2.727   2.727   2.727   2.727
    81.82    2.727   2.727   2.727   2.727   2.727   2.727   2.727   2.727   2.727   2.727
    66.27    2.727   2.727   2.727   2.727   2.727   2.727   2.727   2.727   2.727   2.727
    50.71    2.727   2.727   2.727   2.727   2.727   2.727   2.727   2.727   2.727   2.727
    35.16    2.727   2.727   2.727   2.727   2.727   2.727   2.727   2.727   2.727   2.727
    19.60    2.727   2.727   2.727   2.727   2.727   2.727   2.727   2.727   2.727   2.727

   Height   Standard deviation at grid points for the w component:
   159.60    1.705   1.705   1.705   1.705   1.705   1.705   1.705   1.705   1.705   1.705
   144.04    1.705   1.705   1.705   1.705   1.705   1.705   1.705   1.705   1.705   1.705
   128.49    1.705   1.705   1.705   1.705   1.705   1.705   1.705   1.705   1.705   1.705
   112.93    1.705   1.705   1.705   1.705   1.705   1.705   1.705   1.705   1.705   1.705
    97.38    1.705   1.705   1.705   1.705   1.705   1.705   1.705   1.705   1.705   1.705
    81.82    1.705   1.705   1.705   1.705   1.705   1.705   1.705   1.705   1.705   1.705
    66.27    1.705   1.705   1.705   1.705   1.705   1.705   1.705   1.705   1.705   1.705
    50.71    1.705   1.705   1.705   1.705   1.705   1.705   1.705   1.705   1.705   1.705
    35.16    1.705   1.705   1.705   1.705   1.705   1.705   1.705   1.705   1.705   1.705
    19.60    1.705   1.705   1.705   1.705   1.705   1.705   1.705   1.705   1.704   1.704

Nyquist frequency of turbulent wind field =        10.000 Hz


Processing complete.  4.5625 CPU seconds used.
