
This summary file was generated by TurbSim (v1.40, 12-Sep-2008) on 27-May-2021 at 14:32:01.


Runtime Options:

  18573235  Random seed #1
    RANLUX  Random Number Generator Type
         F  Output binary HH turbulence parameters?
         F  Output formatted turbulence parameters?
         F  Output AeroDyn HH files?
         F  Output AeroDyn FF files?
         F  Output BLADED FF files?
         F  Output tower data?
         T  Output formatted FF files?
         F  Output coherent turbulence time step file?
         T  Clockwise rotation when looking downwind?
         T  Scale IEC turbulence models to specified hub-height standard deviation?


Turbine/Model Specifications:

        10  Vertical grid-point matrix dimension
        10  Horizontal grid-point matrix dimension
     0.050  Time step [seconds]
   200.000  Analysis time [seconds]
   200.000  Usable output time [seconds]
    89.600  Hub height [m]
   140.000  Grid height [m]
   140.000  Grid width [m]
     0.000  Vertical flow angle [degrees]
     0.000  Horizontal flow angle [degrees]


Meteorological Boundary Conditions:

    IECKAI  IEC Kaimal spectral model
         1  IEC standard: IEC 61400-1 Ed. 3: 2005
         B  IEC turbulence characteristic
       NTM  IEC Normal Turbulence Model
       N/A  IEC Extreme Turbulence Model (ETM) "c" parameter [m/s]
       IEC  Wind profile type
    89.600  Reference height [m]
    23.000  Reference wind speed [m/s]
       N/A  Jet height [m]
     0.200  Power law exponent
     0.030  Surface roughness length [m]


You have requested that the following file(s) be generated:

   TurbA_200sec_23ms.u (formatted full-field U-component file)
   TurbA_200sec_23ms.v (formatted full-field V-component file)
   TurbA_200sec_23ms.w (formatted full-field W-component file)


Turbulence Simulation Scaling Parameter Summary:

   Turbulence model used                            =  IEC Kaimal
   Turbulence characteristic                        =  B
   IEC turbulence type                              =  Normal Turbulence Model
   IEC standard                                     =  IEC 61400-1 Ed. 3: 2005
   Mean wind speed at hub height                    =   23.000 m/s
   Expected value of turbulence intensity at 15 m/s =   14.000%
   Characteristic value of standard deviation       =    3.199 m/s
   Turbulence scale                                 =   42.000 m
   u-component integral scale                       =  340.200 m
   Coherency scale                                  =  340.200 m
   Characteristic value of hub turbulence intensity =   13.909%
   Gradient Richardson number                       =    0.000

   Wind profile type                                =  Power law on rotor disk, logarithmic elsewhere
   Power law exponent                               =    0.200
   Mean shear across rotor disk                     =    0.055 (m/s)/m
   Assumed rotor diameter                           =  140.000 m
   Surface roughness length                         =    0.030 m

   Number of time steps in the FFT                  =     4140
   Number of time steps output                      =     4122


Mean Flow Angles:

   Vertical   =   0.0 degrees
   Horizontal =   0.0 degrees

Mean Wind Speed Profile:

   Height    Wind Speed   Horizontal Angle  U-comp (X)   V-comp (Y)   W-comp (Z)
     (m)        (m/s)         (degrees)       (m/s)        (m/s)        (m/s)   
   ------    ----------   ----------------  ----------   ----------   ----------
    159.6       25.82            0.00         25.82         0.00         0.00
    144.0       25.29            0.00         25.29         0.00         0.00
    128.5       24.72            0.00         24.72         0.00         0.00
    112.9       24.09            0.00         24.09         0.00         0.00
     97.4       23.39            0.00         23.39         0.00         0.00
     89.6       23.00            0.00         23.00         0.00         0.00
     81.8       22.59            0.00         22.59         0.00         0.00
     66.3       21.65            0.00         21.65         0.00         0.00
     50.7       20.53            0.00         20.53         0.00         0.00
     35.2       19.08            0.00         19.08         0.00         0.00
     19.6       16.97            0.00         16.97         0.00         0.00


Harvested Random Seeds after Generation of the Random Numbers:

      5827677 K1
            0 K2


Scaling statistics from the hub grid point:

  Component  Target Sigma (m/s)  Simulated Sigma (m/s)  Scaling Factor
  ---------  ------------------  ---------------------  --------------
     u'             3.199                3.102                1.031
     v'             2.559                2.470                1.036
     w'             1.599                1.544                1.036


Hub-Height Simulated Turbulence Statistical Summary:

   Type of Wind        Min (m/s)   Mean (m/s)    Max (m/s)  Sigma (m/s)       TI (%)
   ----------------    ---------   ----------    ---------  -----------       ------
   Longitudinal (u)        13.82        23.00        32.41        3.199       13.909
   Lateral (v)             -7.58         0.00         6.59        2.559       11.127
   Vertical (w)            -5.06         0.00         5.29        1.599        6.954
   U component             13.82        23.00        32.41        3.199       13.909
   V component             -7.58         0.00         6.59        2.559       11.127
   W component             -5.06         0.00         5.29        1.599        6.954
   Horizontal (U&V)        13.83        23.15        32.48        3.158       13.644
   Total                   13.87        23.20        32.48        3.159       13.615

                       Min Reynolds     Mean Reynolds    Max Reynolds    Correlation
   Product             Stress (m/s)^2   Stress (m/s)^2   Stress (m/s)^2  Coefficient
   ----------------    --------------   --------------   --------------  -----------
   u'w'                    -29.334            -0.316            26.878        -0.062
   u'v'                    -33.543             1.666            46.375         0.203
   v'w'                    -26.383            -0.430            18.346        -0.105

   Friction Velocity (Ustar)  =      0.562 m/s
   Maximum Instantaneous TKE  =     47.16 (m/s)^2
   Maximum Instantaneous CTKE =     23.33 (m/s)^2


Grid Point Variance Summary:

   Y-coord  -70.00  -54.44  -38.89  -23.33   -7.78    7.78   23.33   38.89   54.44   70.00

   Height   Standard deviation at grid points for the u component:
   159.60    3.348   3.150   3.062   2.920   3.089   3.682   3.335   3.313   3.762   3.782
   144.04    3.392   3.023   3.147   2.851   3.389   3.360   3.585   3.106   3.552   3.683
   128.49    3.505   3.122   2.599   2.638   3.118   3.181   3.299   3.563   3.905   3.711
   112.93    3.272   2.815   2.976   3.339   3.303   3.311   3.539   3.194   3.275   3.318
    97.38    3.159   3.126   3.215   3.393   3.004   3.358   3.499   3.541   3.597   2.972
    81.82    2.972   3.052   3.184   3.520   3.592   3.087   3.405   3.631   3.623   3.182
    66.27    3.371   3.457   3.312   3.048   3.164   3.238   3.363   3.356   3.437   3.189
    50.71    3.340   3.325   3.321   2.867   2.743   3.293   3.394   3.643   3.656   3.090
    35.16    3.322   3.539   3.514   3.206   2.918   3.061   3.300   3.088   3.353   3.426
    19.60    3.065   3.318   3.440   3.454   3.519   3.276   3.315   3.473   3.171   3.183

   Height   Standard deviation at grid points for the v component:
   159.60    2.559   2.559   2.559   2.559   2.559   2.559   2.559   2.559   2.559   2.559
   144.04    2.559   2.559   2.559   2.559   2.559   2.559   2.559   2.559   2.559   2.559
   128.49    2.559   2.559   2.559   2.559   2.559   2.559   2.559   2.559   2.559   2.559
   112.93    2.559   2.559   2.559   2.559   2.559   2.559   2.559   2.559   2.559   2.559
    97.38    2.559   2.559   2.559   2.559   2.559   2.559   2.559   2.559   2.559   2.559
    81.82    2.559   2.559   2.559   2.559   2.559   2.559   2.559   2.559   2.559   2.559
    66.27    2.559   2.559   2.559   2.559   2.559   2.559   2.559   2.559   2.559   2.559
    50.71    2.559   2.559   2.559   2.559   2.559   2.559   2.559   2.559   2.559   2.559
    35.16    2.559   2.559   2.559   2.559   2.559   2.559   2.559   2.559   2.559   2.559
    19.60    2.559   2.559   2.559   2.559   2.559   2.559   2.559   2.559   2.559   2.559

   Height   Standard deviation at grid points for the w component:
   159.60    1.599   1.599   1.599   1.599   1.599   1.599   1.599   1.599   1.599   1.599
   144.04    1.599   1.599   1.599   1.599   1.599   1.599   1.599   1.599   1.599   1.599
   128.49    1.599   1.599   1.599   1.599   1.599   1.599   1.599   1.599   1.599   1.599
   112.93    1.599   1.599   1.599   1.599   1.599   1.599   1.599   1.599   1.599   1.599
    97.38    1.599   1.599   1.599   1.599   1.599   1.599   1.599   1.599   1.599   1.599
    81.82    1.599   1.599   1.599   1.599   1.599   1.599   1.600   1.599   1.599   1.599
    66.27    1.599   1.599   1.599   1.599   1.599   1.599   1.599   1.599   1.599   1.599
    50.71    1.599   1.599   1.599   1.599   1.599   1.599   1.599   1.599   1.599   1.599
    35.16    1.599   1.599   1.599   1.599   1.599   1.599   1.599   1.599   1.599   1.599
    19.60    1.599   1.599   1.599   1.599   1.599   1.599   1.599   1.599   1.599   1.599

Nyquist frequency of turbulent wind field =        10.000 Hz


Processing complete.  4.3438 CPU seconds used.
