
This summary file was generated by TurbSim (v1.40, 12-Sep-2008) on 27-May-2021 at 14:31:50.


Runtime Options:

  18573235  Random seed #1
    RANLUX  Random Number Generator Type
         F  Output binary HH turbulence parameters?
         F  Output formatted turbulence parameters?
         F  Output AeroDyn HH files?
         F  Output AeroDyn FF files?
         F  Output BLADED FF files?
         F  Output tower data?
         T  Output formatted FF files?
         F  Output coherent turbulence time step file?
         T  Clockwise rotation when looking downwind?
         T  Scale IEC turbulence models to specified hub-height standard deviation?


Turbine/Model Specifications:

        10  Vertical grid-point matrix dimension
        10  Horizontal grid-point matrix dimension
     0.050  Time step [seconds]
   200.000  Analysis time [seconds]
   200.000  Usable output time [seconds]
    89.600  Hub height [m]
   140.000  Grid height [m]
   140.000  Grid width [m]
     0.000  Vertical flow angle [degrees]
     0.000  Horizontal flow angle [degrees]


Meteorological Boundary Conditions:

    IECKAI  IEC Kaimal spectral model
         1  IEC standard: IEC 61400-1 Ed. 3: 2005
         B  IEC turbulence characteristic
       NTM  IEC Normal Turbulence Model
       N/A  IEC Extreme Turbulence Model (ETM) "c" parameter [m/s]
       IEC  Wind profile type
    89.600  Reference height [m]
    19.000  Reference wind speed [m/s]
       N/A  Jet height [m]
     0.200  Power law exponent
     0.030  Surface roughness length [m]


You have requested that the following file(s) be generated:

   TurbA_200sec_19ms.u (formatted full-field U-component file)
   TurbA_200sec_19ms.v (formatted full-field V-component file)
   TurbA_200sec_19ms.w (formatted full-field W-component file)


Turbulence Simulation Scaling Parameter Summary:

   Turbulence model used                            =  IEC Kaimal
   Turbulence characteristic                        =  B
   IEC turbulence type                              =  Normal Turbulence Model
   IEC standard                                     =  IEC 61400-1 Ed. 3: 2005
   Mean wind speed at hub height                    =   19.000 m/s
   Expected value of turbulence intensity at 15 m/s =   14.000%
   Characteristic value of standard deviation       =    2.779 m/s
   Turbulence scale                                 =   42.000 m
   u-component integral scale                       =  340.200 m
   Coherency scale                                  =  340.200 m
   Characteristic value of hub turbulence intensity =   14.626%
   Gradient Richardson number                       =    0.000

   Wind profile type                                =  Power law on rotor disk, logarithmic elsewhere
   Power law exponent                               =    0.200
   Mean shear across rotor disk                     =    0.045 (m/s)/m
   Assumed rotor diameter                           =  140.000 m
   Surface roughness length                         =    0.030 m

   Number of time steps in the FFT                  =     4160
   Number of time steps output                      =     4148


Mean Flow Angles:

   Vertical   =   0.0 degrees
   Horizontal =   0.0 degrees

Mean Wind Speed Profile:

   Height    Wind Speed   Horizontal Angle  U-comp (X)   V-comp (Y)   W-comp (Z)
     (m)        (m/s)         (degrees)       (m/s)        (m/s)        (m/s)   
   ------    ----------   ----------------  ----------   ----------   ----------
    159.6       21.33            0.00         21.33         0.00         0.00
    144.0       20.89            0.00         20.89         0.00         0.00
    128.5       20.42            0.00         20.42         0.00         0.00
    112.9       19.90            0.00         19.90         0.00         0.00
     97.4       19.32            0.00         19.32         0.00         0.00
     89.6       19.00            0.00         19.00         0.00         0.00
     81.8       18.66            0.00         18.66         0.00         0.00
     66.3       17.89            0.00         17.89         0.00         0.00
     50.7       16.96            0.00         16.96         0.00         0.00
     35.2       15.76            0.00         15.76         0.00         0.00
     19.6       14.02            0.00         14.02         0.00         0.00


Harvested Random Seeds after Generation of the Random Numbers:

      5855980 K1
            0 K2


Scaling statistics from the hub grid point:

  Component  Target Sigma (m/s)  Simulated Sigma (m/s)  Scaling Factor
  ---------  ------------------  ---------------------  --------------
     u'             2.779                2.421                1.148
     v'             2.223                2.139                1.039
     w'             1.390                1.344                1.034


Hub-Height Simulated Turbulence Statistical Summary:

   Type of Wind        Min (m/s)   Mean (m/s)    Max (m/s)  Sigma (m/s)       TI (%)
   ----------------    ---------   ----------    ---------  -----------       ------
   Longitudinal (u)         9.16        19.00        26.14        2.779       14.626
   Lateral (v)             -8.91         0.00         7.35        2.223       11.701
   Vertical (w)            -4.71         0.00         5.05        1.390        7.313
   U component              9.16        19.00        26.14        2.779       14.626
   V component             -8.91         0.00         7.35        2.223       11.701
   W component             -4.71         0.00         5.05        1.390        7.313
   Horizontal (U&V)         9.20        19.13        26.37        2.751       14.380
   Total                    9.20        19.18        26.38        2.747       14.320

                       Min Reynolds     Mean Reynolds    Max Reynolds    Correlation
   Product             Stress (m/s)^2   Stress (m/s)^2   Stress (m/s)^2  Coefficient
   ----------------    --------------   --------------   --------------  -----------
   u'w'                    -20.022             0.362            17.085         0.094
   u'v'                    -29.208            -1.420            21.408        -0.230
   v'w'                    -19.544            -0.247            13.833        -0.080

   Friction Velocity (Ustar)  =      0.602 m/s
   Maximum Instantaneous TKE  =     51.54 (m/s)^2
   Maximum Instantaneous CTKE =     15.10 (m/s)^2


Grid Point Variance Summary:

   Y-coord  -70.00  -54.44  -38.89  -23.33   -7.78    7.78   23.33   38.89   54.44   70.00

   Height   Standard deviation at grid points for the u component:
   159.60    3.033   3.099   2.847   2.757   3.166   3.014   3.088   3.021   2.915   2.902
   144.04    2.988   3.230   3.262   3.034   2.962   2.906   2.709   2.681   2.880   2.621
   128.49    2.827   3.064   3.370   3.193   3.206   2.767   2.820   2.604   2.683   2.877
   112.93    2.990   3.083   3.410   3.234   3.264   3.127   2.903   2.878   2.738   2.894
    97.38    2.930   3.242   3.215   3.357   3.242   2.885   3.017   2.803   2.758   2.603
    81.82    2.945   2.678   3.088   3.207   3.214   2.790   2.787   2.788   2.075   2.339
    66.27    3.012   2.996   3.107   2.803   2.916   2.757   2.563   2.533   2.317   2.503
    50.71    2.480   2.805   2.828   2.670   2.515   2.689   2.617   2.300   2.461   2.618
    35.16    2.622   2.958   3.119   3.216   3.086   2.657   2.317   2.399   2.593   2.469
    19.60    2.927   3.349   3.065   3.358   3.058   2.827   2.776   2.443   2.464   2.586

   Height   Standard deviation at grid points for the v component:
   159.60    2.223   2.223   2.223   2.223   2.223   2.223   2.223   2.223   2.223   2.223
   144.04    2.223   2.223   2.223   2.223   2.223   2.223   2.223   2.223   2.223   2.223
   128.49    2.223   2.223   2.223   2.223   2.223   2.223   2.223   2.223   2.223   2.223
   112.93    2.223   2.223   2.223   2.223   2.223   2.223   2.223   2.223   2.223   2.223
    97.38    2.223   2.223   2.223   2.223   2.223   2.223   2.223   2.223   2.223   2.223
    81.82    2.223   2.223   2.223   2.223   2.223   2.223   2.223   2.223   2.223   2.223
    66.27    2.223   2.223   2.223   2.223   2.223   2.223   2.223   2.223   2.223   2.223
    50.71    2.223   2.223   2.223   2.223   2.223   2.223   2.223   2.223   2.223   2.223
    35.16    2.223   2.223   2.223   2.223   2.223   2.223   2.223   2.223   2.223   2.223
    19.60    2.223   2.223   2.223   2.223   2.223   2.223   2.223   2.223   2.223   2.223

   Height   Standard deviation at grid points for the w component:
   159.60    1.390   1.390   1.390   1.390   1.390   1.390   1.390   1.390   1.390   1.390
   144.04    1.390   1.390   1.390   1.390   1.390   1.390   1.390   1.390   1.390   1.390
   128.49    1.390   1.390   1.390   1.390   1.390   1.390   1.390   1.390   1.390   1.390
   112.93    1.390   1.390   1.390   1.390   1.390   1.390   1.390   1.390   1.390   1.390
    97.38    1.390   1.390   1.390   1.390   1.390   1.390   1.390   1.390   1.390   1.390
    81.82    1.390   1.390   1.390   1.390   1.390   1.390   1.390   1.390   1.390   1.390
    66.27    1.390   1.390   1.390   1.390   1.390   1.390   1.390   1.390   1.390   1.390
    50.71    1.390   1.390   1.390   1.390   1.390   1.390   1.390   1.390   1.390   1.390
    35.16    1.390   1.390   1.390   1.390   1.390   1.390   1.390   1.390   1.390   1.390
    19.60    1.390   1.390   1.390   1.390   1.390   1.390   1.390   1.390   1.390   1.390

Nyquist frequency of turbulent wind field =        10.000 Hz


Processing complete.  4.4219 CPU seconds used.
