
This summary file was generated by TurbSim (v1.40, 12-Sep-2008) on 27-May-2021 at 14:31:05.


Runtime Options:

  18573235  Random seed #1
    RANLUX  Random Number Generator Type
         F  Output binary HH turbulence parameters?
         F  Output formatted turbulence parameters?
         F  Output AeroDyn HH files?
         F  Output AeroDyn FF files?
         F  Output BLADED FF files?
         F  Output tower data?
         T  Output formatted FF files?
         F  Output coherent turbulence time step file?
         T  Clockwise rotation when looking downwind?
         T  Scale IEC turbulence models to specified hub-height standard deviation?


Turbine/Model Specifications:

        10  Vertical grid-point matrix dimension
        10  Horizontal grid-point matrix dimension
     0.050  Time step [seconds]
   200.000  Analysis time [seconds]
   200.000  Usable output time [seconds]
    89.600  Hub height [m]
   140.000  Grid height [m]
   140.000  Grid width [m]
     0.000  Vertical flow angle [degrees]
     0.000  Horizontal flow angle [degrees]


Meteorological Boundary Conditions:

    IECKAI  IEC Kaimal spectral model
         1  IEC standard: IEC 61400-1 Ed. 3: 2005
         B  IEC turbulence characteristic
       NTM  IEC Normal Turbulence Model
       N/A  IEC Extreme Turbulence Model (ETM) "c" parameter [m/s]
       IEC  Wind profile type
    89.600  Reference height [m]
     3.000  Reference wind speed [m/s]
       N/A  Jet height [m]
     0.200  Power law exponent
     0.030  Surface roughness length [m]


You have requested that the following file(s) be generated:

   TurbA_200sec_3ms.u (formatted full-field U-component file)
   TurbA_200sec_3ms.v (formatted full-field V-component file)
   TurbA_200sec_3ms.w (formatted full-field W-component file)


Turbulence Simulation Scaling Parameter Summary:

   Turbulence model used                            =  IEC Kaimal
   Turbulence characteristic                        =  B
   IEC turbulence type                              =  Normal Turbulence Model
   IEC standard                                     =  IEC 61400-1 Ed. 3: 2005
   Mean wind speed at hub height                    =    3.000 m/s
   Expected value of turbulence intensity at 15 m/s =   14.000%
   Characteristic value of standard deviation       =    1.099 m/s
   Turbulence scale                                 =   42.000 m
   u-component integral scale                       =  340.200 m
   Coherency scale                                  =  340.200 m
   Characteristic value of hub turbulence intensity =   36.633%
   Gradient Richardson number                       =    0.000

   Wind profile type                                =  Power law on rotor disk, logarithmic elsewhere
   Power law exponent                               =    0.200
   Mean shear across rotor disk                     =    0.007 (m/s)/m
   Assumed rotor diameter                           =  140.000 m
   Surface roughness length                         =    0.030 m

   Number of time steps in the FFT                  =     4940
   Number of time steps output                      =     4934


Mean Flow Angles:

   Vertical   =   0.0 degrees
   Horizontal =   0.0 degrees

Mean Wind Speed Profile:

   Height    Wind Speed   Horizontal Angle  U-comp (X)   V-comp (Y)   W-comp (Z)
     (m)        (m/s)         (degrees)       (m/s)        (m/s)        (m/s)   
   ------    ----------   ----------------  ----------   ----------   ----------
    159.6        3.37            0.00          3.37         0.00         0.00
    144.0        3.30            0.00          3.30         0.00         0.00
    128.5        3.22            0.00          3.22         0.00         0.00
    112.9        3.14            0.00          3.14         0.00         0.00
     97.4        3.05            0.00          3.05         0.00         0.00
     89.6        3.00            0.00          3.00         0.00         0.00
     81.8        2.95            0.00          2.95         0.00         0.00
     66.3        2.82            0.00          2.82         0.00         0.00
     50.7        2.68            0.00          2.68         0.00         0.00
     35.2        2.49            0.00          2.49         0.00         0.00
     19.6        2.21            0.00          2.21         0.00         0.00


Harvested Random Seeds after Generation of the Random Numbers:

      6953827 K1
            0 K2


Scaling statistics from the hub grid point:

  Component  Target Sigma (m/s)  Simulated Sigma (m/s)  Scaling Factor
  ---------  ------------------  ---------------------  --------------
     u'             1.099                0.637                1.726
     v'             0.879                0.766                1.148
     w'             0.549                0.526                1.045


Hub-Height Simulated Turbulence Statistical Summary:

   Type of Wind        Min (m/s)   Mean (m/s)    Max (m/s)  Sigma (m/s)       TI (%)
   ----------------    ---------   ----------    ---------  -----------       ------
   Longitudinal (u)        -0.70         3.00         5.84        1.099       36.633
   Lateral (v)             -2.78         0.00         2.18        0.879       29.307
   Vertical (w)            -1.41         0.00         1.82        0.549       18.317
   U component             -0.70         3.00         5.84        1.099       36.633
   V component             -2.78         0.00         2.18        0.879       29.307
   W component             -1.41         0.00         1.82        0.549       18.317
   Horizontal (U&V)         0.06         3.13         5.85        1.075       34.311
   Total                    0.49         3.19         5.90        1.055       33.090

                       Min Reynolds     Mean Reynolds    Max Reynolds    Correlation
   Product             Stress (m/s)^2   Stress (m/s)^2   Stress (m/s)^2  Coefficient
   ----------------    --------------   --------------   --------------  -----------
   u'w'                     -2.548            -0.027             3.894        -0.045
   u'v'                     -5.217            -0.220             4.778        -0.228
   v'w'                     -1.988             0.105             2.993         0.216

   Friction Velocity (Ustar)  =      0.164 m/s
   Maximum Instantaneous TKE  =      8.23 (m/s)^2
   Maximum Instantaneous CTKE =      3.16 (m/s)^2


Grid Point Variance Summary:

   Y-coord  -70.00  -54.44  -38.89  -23.33   -7.78    7.78   23.33   38.89   54.44   70.00

   Height   Standard deviation at grid points for the u component:
   159.60    1.377   1.410   1.297   1.020   1.405   1.250   1.544   1.602   1.042   1.095
   144.04    1.141   1.109   1.035   1.051   1.221   1.013   1.250   1.222   1.247   1.329
   128.49    0.989   0.917   0.950   0.987   1.150   1.043   1.056   1.057   1.077   1.139
   112.93    1.362   1.076   0.947   1.085   1.281   1.186   1.132   1.211   1.164   1.190
    97.38    1.154   1.209   1.160   1.075   1.158   1.305   1.197   1.379   1.306   1.100
    81.82    1.589   1.168   1.025   1.214   1.062   1.268   1.129   1.191   1.117   0.941
    66.27    1.334   1.314   0.965   1.118   0.976   1.154   1.148   1.076   1.031   1.137
    50.71    1.054   1.113   0.987   1.300   1.236   1.231   0.990   1.184   1.096   1.274
    35.16    1.355   1.073   1.156   1.273   1.253   1.175   0.903   1.070   1.423   1.531
    19.60    1.383   1.359   1.373   1.319   1.127   1.364   1.105   1.276   1.388   1.656

   Height   Standard deviation at grid points for the v component:
   159.60    0.879   0.879   0.879   0.879   0.879   0.879   0.879   0.879   0.879   0.879
   144.04    0.879   0.879   0.879   0.879   0.879   0.879   0.879   0.879   0.879   0.879
   128.49    0.879   0.879   0.879   0.879   0.879   0.879   0.879   0.879   0.879   0.879
   112.93    0.879   0.879   0.879   0.879   0.879   0.879   0.879   0.879   0.879   0.879
    97.38    0.879   0.879   0.879   0.879   0.879   0.879   0.879   0.879   0.879   0.879
    81.82    0.879   0.879   0.879   0.879   0.879   0.879   0.879   0.879   0.879   0.879
    66.27    0.879   0.879   0.879   0.879   0.879   0.879   0.879   0.879   0.879   0.879
    50.71    0.879   0.879   0.879   0.879   0.879   0.879   0.879   0.879   0.879   0.879
    35.16    0.879   0.879   0.879   0.879   0.879   0.879   0.879   0.879   0.879   0.879
    19.60    0.879   0.879   0.879   0.879   0.879   0.879   0.879   0.879   0.879   0.879

   Height   Standard deviation at grid points for the w component:
   159.60    0.549   0.549   0.549   0.549   0.549   0.549   0.549   0.549   0.549   0.549
   144.04    0.549   0.549   0.549   0.549   0.549   0.549   0.549   0.549   0.549   0.549
   128.49    0.549   0.549   0.549   0.549   0.549   0.549   0.549   0.549   0.549   0.549
   112.93    0.549   0.549   0.549   0.549   0.549   0.549   0.549   0.549   0.549   0.549
    97.38    0.549   0.549   0.549   0.549   0.549   0.549   0.549   0.549   0.549   0.549
    81.82    0.549   0.549   0.549   0.549   0.549   0.549   0.549   0.549   0.549   0.549
    66.27    0.549   0.549   0.549   0.549   0.549   0.549   0.549   0.549   0.549   0.549
    50.71    0.549   0.549   0.549   0.549   0.549   0.549   0.549   0.549   0.549   0.549
    35.16    0.549   0.549   0.549   0.549   0.549   0.549   0.549   0.549   0.549   0.549
    19.60    0.549   0.549   0.549   0.549   0.549   0.549   0.549   0.549   0.550   0.549

Nyquist frequency of turbulent wind field =        10.000 Hz


Processing complete.  4.5312 CPU seconds used.
