
This summary file was generated by TurbSim (v1.40, 12-Sep-2008) on 27-May-2021 at 14:31:44.


Runtime Options:

  18573235  Random seed #1
    RANLUX  Random Number Generator Type
         F  Output binary HH turbulence parameters?
         F  Output formatted turbulence parameters?
         F  Output AeroDyn HH files?
         F  Output AeroDyn FF files?
         F  Output BLADED FF files?
         F  Output tower data?
         T  Output formatted FF files?
         F  Output coherent turbulence time step file?
         T  Clockwise rotation when looking downwind?
         T  Scale IEC turbulence models to specified hub-height standard deviation?


Turbine/Model Specifications:

        10  Vertical grid-point matrix dimension
        10  Horizontal grid-point matrix dimension
     0.050  Time step [seconds]
   200.000  Analysis time [seconds]
   200.000  Usable output time [seconds]
    89.600  Hub height [m]
   140.000  Grid height [m]
   140.000  Grid width [m]
     0.000  Vertical flow angle [degrees]
     0.000  Horizontal flow angle [degrees]


Meteorological Boundary Conditions:

    IECKAI  IEC Kaimal spectral model
         1  IEC standard: IEC 61400-1 Ed. 3: 2005
         B  IEC turbulence characteristic
       NTM  IEC Normal Turbulence Model
       N/A  IEC Extreme Turbulence Model (ETM) "c" parameter [m/s]
       IEC  Wind profile type
    89.600  Reference height [m]
    17.000  Reference wind speed [m/s]
       N/A  Jet height [m]
     0.200  Power law exponent
     0.030  Surface roughness length [m]


You have requested that the following file(s) be generated:

   TurbA_200sec_17ms.u (formatted full-field U-component file)
   TurbA_200sec_17ms.v (formatted full-field V-component file)
   TurbA_200sec_17ms.w (formatted full-field W-component file)


Turbulence Simulation Scaling Parameter Summary:

   Turbulence model used                            =  IEC Kaimal
   Turbulence characteristic                        =  B
   IEC turbulence type                              =  Normal Turbulence Model
   IEC standard                                     =  IEC 61400-1 Ed. 3: 2005
   Mean wind speed at hub height                    =   17.000 m/s
   Expected value of turbulence intensity at 15 m/s =   14.000%
   Characteristic value of standard deviation       =    2.569 m/s
   Turbulence scale                                 =   42.000 m
   u-component integral scale                       =  340.200 m
   Coherency scale                                  =  340.200 m
   Characteristic value of hub turbulence intensity =   15.112%
   Gradient Richardson number                       =    0.000

   Wind profile type                                =  Power law on rotor disk, logarithmic elsewhere
   Power law exponent                               =    0.200
   Mean shear across rotor disk                     =    0.041 (m/s)/m
   Assumed rotor diameter                           =  140.000 m
   Surface roughness length                         =    0.030 m

   Number of time steps in the FFT                  =     4180
   Number of time steps output                      =     4165


Mean Flow Angles:

   Vertical   =   0.0 degrees
   Horizontal =   0.0 degrees

Mean Wind Speed Profile:

   Height    Wind Speed   Horizontal Angle  U-comp (X)   V-comp (Y)   W-comp (Z)
     (m)        (m/s)         (degrees)       (m/s)        (m/s)        (m/s)   
   ------    ----------   ----------------  ----------   ----------   ----------
    159.6       19.08            0.00         19.08         0.00         0.00
    144.0       18.69            0.00         18.69         0.00         0.00
    128.5       18.27            0.00         18.27         0.00         0.00
    112.9       17.81            0.00         17.81         0.00         0.00
     97.4       17.29            0.00         17.29         0.00         0.00
     89.6       17.00            0.00         17.00         0.00         0.00
     81.8       16.69            0.00         16.69         0.00         0.00
     66.3       16.00            0.00         16.00         0.00         0.00
     50.7       15.17            0.00         15.17         0.00         0.00
     35.2       14.10            0.00         14.10         0.00         0.00
     19.6       12.54            0.00         12.54         0.00         0.00


Harvested Random Seeds after Generation of the Random Numbers:

      5884084 K1
            0 K2


Scaling statistics from the hub grid point:

  Component  Target Sigma (m/s)  Simulated Sigma (m/s)  Scaling Factor
  ---------  ------------------  ---------------------  --------------
     u'             2.569                1.956                1.314
     v'             2.055                1.973                1.042
     w'             1.285                1.244                1.033


Hub-Height Simulated Turbulence Statistical Summary:

   Type of Wind        Min (m/s)   Mean (m/s)    Max (m/s)  Sigma (m/s)       TI (%)
   ----------------    ---------   ----------    ---------  -----------       ------
   Longitudinal (u)         9.04        17.00        24.08        2.569       15.112
   Lateral (v)             -5.91         0.00         7.67        2.055       12.089
   Vertical (w)            -5.03         0.00         3.90        1.285        7.556
   U component              9.04        17.00        24.08        2.569       15.112
   V component             -5.91         0.00         7.67        2.055       12.089
   W component             -5.03         0.00         3.90        1.285        7.556
   Horizontal (U&V)         9.71        17.13        24.09        2.524       14.737
   Total                    9.76        17.18        24.12        2.514       14.635

                       Min Reynolds     Mean Reynolds    Max Reynolds    Correlation
   Product             Stress (m/s)^2   Stress (m/s)^2   Stress (m/s)^2  Coefficient
   ----------------    --------------   --------------   --------------  -----------
   u'w'                    -19.088            -0.732            16.466        -0.222
   u'v'                    -28.268            -0.147            26.127        -0.028
   v'w'                    -14.727             0.059            16.134         0.022

   Friction Velocity (Ustar)  =      0.855 m/s
   Maximum Instantaneous TKE  =     38.84 (m/s)^2
   Maximum Instantaneous CTKE =     15.23 (m/s)^2


Grid Point Variance Summary:

   Y-coord  -70.00  -54.44  -38.89  -23.33   -7.78    7.78   23.33   38.89   54.44   70.00

   Height   Standard deviation at grid points for the u component:
   159.60    2.676   2.964   2.749   3.089   2.908   2.390   2.723   3.446   2.951   2.764
   144.04    2.512   2.906   2.838   2.953   2.960   2.853   2.914   3.068   3.077   3.026
   128.49    2.953   2.941   2.806   2.694   2.732   2.838   2.918   2.623   2.785   2.681
   112.93    2.910   2.716   2.738   3.065   2.876   2.857   2.717   2.474   2.709   2.718
    97.38    2.858   2.889   2.845   2.911   2.905   2.483   2.447   2.414   2.675   2.994
    81.82    2.939   2.588   2.724   2.687   2.648   2.522   2.623   2.903   3.093   3.114
    66.27    3.157   3.248   2.575   2.672   2.816   2.556   2.664   2.930   3.054   3.142
    50.71    3.050   2.673   2.697   2.604   2.469   2.724   2.426   2.593   2.920   3.204
    35.16    3.152   2.759   2.718   2.604   2.642   2.670   2.652   2.773   2.848   2.821
    19.60    3.072   3.140   2.830   2.650   2.751   3.103   2.608   3.051   2.670   2.938

   Height   Standard deviation at grid points for the v component:
   159.60    2.055   2.055   2.055   2.055   2.055   2.055   2.055   2.055   2.055   2.055
   144.04    2.055   2.055   2.055   2.055   2.055   2.055   2.055   2.055   2.055   2.055
   128.49    2.055   2.055   2.055   2.055   2.055   2.055   2.055   2.055   2.055   2.055
   112.93    2.055   2.055   2.055   2.055   2.055   2.055   2.055   2.055   2.055   2.055
    97.38    2.055   2.055   2.055   2.055   2.055   2.055   2.055   2.055   2.055   2.055
    81.82    2.055   2.055   2.055   2.055   2.055   2.055   2.055   2.055   2.055   2.055
    66.27    2.055   2.055   2.055   2.055   2.055   2.055   2.055   2.055   2.055   2.055
    50.71    2.055   2.055   2.055   2.055   2.055   2.055   2.055   2.055   2.055   2.055
    35.16    2.055   2.055   2.055   2.055   2.055   2.055   2.055   2.055   2.055   2.055
    19.60    2.055   2.055   2.055   2.055   2.055   2.055   2.055   2.055   2.055   2.055

   Height   Standard deviation at grid points for the w component:
   159.60    1.284   1.284   1.284   1.284   1.285   1.284   1.284   1.284   1.284   1.284
   144.04    1.284   1.285   1.285   1.284   1.284   1.284   1.285   1.284   1.284   1.284
   128.49    1.285   1.284   1.284   1.284   1.284   1.284   1.284   1.284   1.285   1.284
   112.93    1.284   1.284   1.285   1.284   1.284   1.284   1.285   1.284   1.284   1.284
    97.38    1.285   1.285   1.285   1.285   1.285   1.285   1.285   1.284   1.284   1.284
    81.82    1.285   1.284   1.284   1.284   1.284   1.285   1.284   1.285   1.284   1.284
    66.27    1.284   1.284   1.285   1.284   1.285   1.284   1.284   1.284   1.284   1.285
    50.71    1.284   1.284   1.284   1.284   1.285   1.285   1.285   1.284   1.284   1.284
    35.16    1.284   1.284   1.285   1.284   1.284   1.284   1.284   1.285   1.284   1.285
    19.60    1.285   1.284   1.284   1.284   1.285   1.285   1.284   1.284   1.284   1.285

Nyquist frequency of turbulent wind field =        10.000 Hz


Processing complete.  4.4375 CPU seconds used.
