
This summary file was generated by TurbSim (v1.40, 12-Sep-2008) on 27-May-2021 at 14:31:56.


Runtime Options:

  18573235  Random seed #1
    RANLUX  Random Number Generator Type
         F  Output binary HH turbulence parameters?
         F  Output formatted turbulence parameters?
         F  Output AeroDyn HH files?
         F  Output AeroDyn FF files?
         F  Output BLADED FF files?
         F  Output tower data?
         T  Output formatted FF files?
         F  Output coherent turbulence time step file?
         T  Clockwise rotation when looking downwind?
         T  Scale IEC turbulence models to specified hub-height standard deviation?


Turbine/Model Specifications:

        10  Vertical grid-point matrix dimension
        10  Horizontal grid-point matrix dimension
     0.050  Time step [seconds]
   200.000  Analysis time [seconds]
   200.000  Usable output time [seconds]
    89.600  Hub height [m]
   140.000  Grid height [m]
   140.000  Grid width [m]
     0.000  Vertical flow angle [degrees]
     0.000  Horizontal flow angle [degrees]


Meteorological Boundary Conditions:

    IECKAI  IEC Kaimal spectral model
         1  IEC standard: IEC 61400-1 Ed. 3: 2005
         B  IEC turbulence characteristic
       NTM  IEC Normal Turbulence Model
       N/A  IEC Extreme Turbulence Model (ETM) "c" parameter [m/s]
       IEC  Wind profile type
    89.600  Reference height [m]
    21.000  Reference wind speed [m/s]
       N/A  Jet height [m]
     0.200  Power law exponent
     0.030  Surface roughness length [m]


You have requested that the following file(s) be generated:

   TurbA_200sec_21ms.u (formatted full-field U-component file)
   TurbA_200sec_21ms.v (formatted full-field V-component file)
   TurbA_200sec_21ms.w (formatted full-field W-component file)


Turbulence Simulation Scaling Parameter Summary:

   Turbulence model used                            =  IEC Kaimal
   Turbulence characteristic                        =  B
   IEC turbulence type                              =  Normal Turbulence Model
   IEC standard                                     =  IEC 61400-1 Ed. 3: 2005
   Mean wind speed at hub height                    =   21.000 m/s
   Expected value of turbulence intensity at 15 m/s =   14.000%
   Characteristic value of standard deviation       =    2.989 m/s
   Turbulence scale                                 =   42.000 m
   u-component integral scale                       =  340.200 m
   Coherency scale                                  =  340.200 m
   Characteristic value of hub turbulence intensity =   14.233%
   Gradient Richardson number                       =    0.000

   Wind profile type                                =  Power law on rotor disk, logarithmic elsewhere
   Power law exponent                               =    0.200
   Mean shear across rotor disk                     =    0.050 (m/s)/m
   Assumed rotor diameter                           =  140.000 m
   Surface roughness length                         =    0.030 m

   Number of time steps in the FFT                  =     4140
   Number of time steps output                      =     4134


Mean Flow Angles:

   Vertical   =   0.0 degrees
   Horizontal =   0.0 degrees

Mean Wind Speed Profile:

   Height    Wind Speed   Horizontal Angle  U-comp (X)   V-comp (Y)   W-comp (Z)
     (m)        (m/s)         (degrees)       (m/s)        (m/s)        (m/s)   
   ------    ----------   ----------------  ----------   ----------   ----------
    159.6       23.57            0.00         23.57         0.00         0.00
    144.0       23.09            0.00         23.09         0.00         0.00
    128.5       22.57            0.00         22.57         0.00         0.00
    112.9       21.99            0.00         21.99         0.00         0.00
     97.4       21.35            0.00         21.35         0.00         0.00
     89.6       21.00            0.00         21.00         0.00         0.00
     81.8       20.62            0.00         20.62         0.00         0.00
     66.3       19.77            0.00         19.77         0.00         0.00
     50.7       18.74            0.00         18.74         0.00         0.00
     35.2       17.42            0.00         17.42         0.00         0.00
     19.6       15.50            0.00         15.50         0.00         0.00


Harvested Random Seeds after Generation of the Random Numbers:

      5827677 K1
            0 K2


Scaling statistics from the hub grid point:

  Component  Target Sigma (m/s)  Simulated Sigma (m/s)  Scaling Factor
  ---------  ------------------  ---------------------  --------------
     u'             2.989                2.868                1.042
     v'             2.391                2.305                1.038
     w'             1.495                1.444                1.035


Hub-Height Simulated Turbulence Statistical Summary:

   Type of Wind        Min (m/s)   Mean (m/s)    Max (m/s)  Sigma (m/s)       TI (%)
   ----------------    ---------   ----------    ---------  -----------       ------
   Longitudinal (u)        12.55        21.00        29.81        2.989       14.233
   Lateral (v)             -7.03         0.00         6.18        2.391       11.387
   Vertical (w)            -4.73         0.00         4.91        1.494        7.117
   U component             12.55        21.00        29.81        2.989       14.233
   V component             -7.03         0.00         6.18        2.391       11.387
   W component             -4.73         0.00         4.91        1.494        7.117
   Horizontal (U&V)        12.56        21.14        29.87        2.949       13.950
   Total                   12.60        21.19        29.87        2.950       13.917

                       Min Reynolds     Mean Reynolds    Max Reynolds    Correlation
   Product             Stress (m/s)^2   Stress (m/s)^2   Stress (m/s)^2  Coefficient
   ----------------    --------------   --------------   --------------  -----------
   u'w'                    -25.277            -0.275            23.505        -0.062
   u'v'                    -29.551             1.497            39.817         0.209
   v'w'                    -23.020            -0.382            15.838        -0.107

   Friction Velocity (Ustar)  =      0.525 m/s
   Maximum Instantaneous TKE  =     40.71 (m/s)^2
   Maximum Instantaneous CTKE =     20.06 (m/s)^2


Grid Point Variance Summary:

   Y-coord  -70.00  -54.44  -38.89  -23.33   -7.78    7.78   23.33   38.89   54.44   70.00

   Height   Standard deviation at grid points for the u component:
   159.60    3.135   2.953   2.848   2.721   2.883   3.463   3.108   3.093   3.537   3.561
   144.04    3.193   2.825   2.937   2.659   3.180   3.140   3.356   2.894   3.330   3.457
   128.49    3.309   2.931   2.421   2.446   2.916   2.970   3.084   3.350   3.684   3.490
   112.93    3.094   2.618   2.774   3.118   3.080   3.101   3.320   2.989   3.075   3.114
    97.38    2.983   2.939   3.010   3.175   2.780   3.137   3.275   3.321   3.393   2.777
    81.82    2.788   2.862   2.990   3.300   3.373   2.881   3.184   3.409   3.405   2.982
    66.27    3.189   3.264   3.109   2.858   2.981   3.044   3.158   3.157   3.219   2.990
    50.71    3.142   3.127   3.126   2.676   2.565   3.098   3.200   3.434   3.442   2.874
    35.16    3.129   3.339   3.316   3.001   2.709   2.864   3.104   2.892   3.154   3.211
    19.60    2.877   3.129   3.245   3.239   3.298   3.060   3.117   3.273   2.977   2.980

   Height   Standard deviation at grid points for the v component:
   159.60    2.391   2.391   2.391   2.391   2.391   2.391   2.391   2.391   2.391   2.391
   144.04    2.391   2.391   2.391   2.391   2.391   2.391   2.391   2.391   2.391   2.391
   128.49    2.391   2.391   2.391   2.391   2.391   2.391   2.391   2.391   2.391   2.391
   112.93    2.391   2.391   2.391   2.391   2.391   2.391   2.391   2.391   2.391   2.391
    97.38    2.391   2.391   2.391   2.391   2.391   2.391   2.391   2.391   2.391   2.391
    81.82    2.391   2.391   2.391   2.391   2.391   2.391   2.391   2.391   2.391   2.391
    66.27    2.391   2.391   2.391   2.391   2.391   2.391   2.391   2.391   2.391   2.391
    50.71    2.391   2.391   2.391   2.391   2.391   2.391   2.391   2.391   2.391   2.391
    35.16    2.391   2.391   2.391   2.391   2.391   2.391   2.391   2.391   2.391   2.391
    19.60    2.391   2.391   2.391   2.391   2.391   2.391   2.391   2.391   2.391   2.391

   Height   Standard deviation at grid points for the w component:
   159.60    1.494   1.494   1.495   1.494   1.495   1.494   1.494   1.494   1.495   1.495
   144.04    1.494   1.494   1.494   1.495   1.495   1.494   1.494   1.494   1.494   1.495
   128.49    1.495   1.494   1.494   1.494   1.494   1.494   1.494   1.495   1.494   1.494
   112.93    1.495   1.494   1.495   1.495   1.494   1.494   1.494   1.494   1.494   1.494
    97.38    1.494   1.494   1.495   1.495   1.495   1.494   1.494   1.494   1.494   1.494
    81.82    1.495   1.494   1.494   1.494   1.495   1.495   1.495   1.494   1.495   1.494
    66.27    1.495   1.494   1.494   1.494   1.495   1.495   1.494   1.495   1.494   1.494
    50.71    1.494   1.495   1.495   1.495   1.494   1.494   1.495   1.494   1.494   1.494
    35.16    1.494   1.494   1.494   1.494   1.495   1.495   1.495   1.494   1.494   1.495
    19.60    1.494   1.494   1.495   1.495   1.494   1.494   1.494   1.495   1.494   1.494

Nyquist frequency of turbulent wind field =        10.000 Hz


Processing complete.  4.375 CPU seconds used.
