
This summary file was generated by TurbSim (v1.40, 12-Sep-2008) on 27-May-2021 at 14:31:11.


Runtime Options:

  18573235  Random seed #1
    RANLUX  Random Number Generator Type
         F  Output binary HH turbulence parameters?
         F  Output formatted turbulence parameters?
         F  Output AeroDyn HH files?
         F  Output AeroDyn FF files?
         F  Output BLADED FF files?
         F  Output tower data?
         T  Output formatted FF files?
         F  Output coherent turbulence time step file?
         T  Clockwise rotation when looking downwind?
         T  Scale IEC turbulence models to specified hub-height standard deviation?


Turbine/Model Specifications:

        10  Vertical grid-point matrix dimension
        10  Horizontal grid-point matrix dimension
     0.050  Time step [seconds]
   200.000  Analysis time [seconds]
   200.000  Usable output time [seconds]
    89.600  Hub height [m]
   140.000  Grid height [m]
   140.000  Grid width [m]
     0.000  Vertical flow angle [degrees]
     0.000  Horizontal flow angle [degrees]


Meteorological Boundary Conditions:

    IECKAI  IEC Kaimal spectral model
         1  IEC standard: IEC 61400-1 Ed. 3: 2005
         B  IEC turbulence characteristic
       NTM  IEC Normal Turbulence Model
       N/A  IEC Extreme Turbulence Model (ETM) "c" parameter [m/s]
       IEC  Wind profile type
    89.600  Reference height [m]
     5.000  Reference wind speed [m/s]
       N/A  Jet height [m]
     0.200  Power law exponent
     0.030  Surface roughness length [m]


You have requested that the following file(s) be generated:

   TurbA_200sec_5ms.u (formatted full-field U-component file)
   TurbA_200sec_5ms.v (formatted full-field V-component file)
   TurbA_200sec_5ms.w (formatted full-field W-component file)


Turbulence Simulation Scaling Parameter Summary:

   Turbulence model used                            =  IEC Kaimal
   Turbulence characteristic                        =  B
   IEC turbulence type                              =  Normal Turbulence Model
   IEC standard                                     =  IEC 61400-1 Ed. 3: 2005
   Mean wind speed at hub height                    =    5.000 m/s
   Expected value of turbulence intensity at 15 m/s =   14.000%
   Characteristic value of standard deviation       =    1.309 m/s
   Turbulence scale                                 =   42.000 m
   u-component integral scale                       =  340.200 m
   Coherency scale                                  =  340.200 m
   Characteristic value of hub turbulence intensity =   26.180%
   Gradient Richardson number                       =    0.000

   Wind profile type                                =  Power law on rotor disk, logarithmic elsewhere
   Power law exponent                               =    0.200
   Mean shear across rotor disk                     =    0.012 (m/s)/m
   Assumed rotor diameter                           =  140.000 m
   Surface roughness length                         =    0.030 m

   Number of time steps in the FFT                  =     4560
   Number of time steps output                      =     4560


Mean Flow Angles:

   Vertical   =   0.0 degrees
   Horizontal =   0.0 degrees

Mean Wind Speed Profile:

   Height    Wind Speed   Horizontal Angle  U-comp (X)   V-comp (Y)   W-comp (Z)
     (m)        (m/s)         (degrees)       (m/s)        (m/s)        (m/s)   
   ------    ----------   ----------------  ----------   ----------   ----------
    159.6        5.61            0.00          5.61         0.00         0.00
    144.0        5.50            0.00          5.50         0.00         0.00
    128.5        5.37            0.00          5.37         0.00         0.00
    112.9        5.24            0.00          5.24         0.00         0.00
     97.4        5.08            0.00          5.08         0.00         0.00
     89.6        5.00            0.00          5.00         0.00         0.00
     81.8        4.91            0.00          4.91         0.00         0.00
     66.3        4.71            0.00          4.71         0.00         0.00
     50.7        4.46            0.00          4.46         0.00         0.00
     35.2        4.15            0.00          4.15         0.00         0.00
     19.6        3.69            0.00          3.69         0.00         0.00


Harvested Random Seeds after Generation of the Random Numbers:

      6419055 K1
            0 K2


Scaling statistics from the hub grid point:

  Component  Target Sigma (m/s)  Simulated Sigma (m/s)  Scaling Factor
  ---------  ------------------  ---------------------  --------------
     u'             1.309                0.716                1.828
     v'             1.047                0.951                1.101
     w'             0.655                0.632                1.036


Hub-Height Simulated Turbulence Statistical Summary:

   Type of Wind        Min (m/s)   Mean (m/s)    Max (m/s)  Sigma (m/s)       TI (%)
   ----------------    ---------   ----------    ---------  -----------       ------
   Longitudinal (u)         1.40         5.00         9.27        1.309       26.180
   Lateral (v)             -3.33         0.00         3.31        1.047       20.944
   Vertical (w)            -2.66         0.00         1.77        0.655       13.090
   U component              1.40         5.00         9.27        1.309       26.180
   V component             -3.33         0.00         3.31        1.047       20.944
   W component             -2.66         0.00         1.77        0.655       13.090
   Horizontal (U&V)         1.49         5.11         9.32        1.285       25.129
   Total                    1.49         5.16         9.32        1.271       24.631

                       Min Reynolds     Mean Reynolds    Max Reynolds    Correlation
   Product             Stress (m/s)^2   Stress (m/s)^2   Stress (m/s)^2  Coefficient
   ----------------    --------------   --------------   --------------  -----------
   u'w'                     -3.466             0.008             5.556         0.010
   u'v'                     -8.884            -0.242             6.353        -0.177
   v'w'                     -4.662            -0.049             2.830        -0.072

   Friction Velocity (Ustar)  =      0.091 m/s
   Maximum Instantaneous TKE  =      9.63 (m/s)^2
   Maximum Instantaneous CTKE =      4.72 (m/s)^2


Grid Point Variance Summary:

   Y-coord  -70.00  -54.44  -38.89  -23.33   -7.78    7.78   23.33   38.89   54.44   70.00

   Height   Standard deviation at grid points for the u component:
   159.60    2.373   1.861   1.625   1.866   1.876   1.581   1.361   1.820   1.687   1.826
   144.04    2.147   1.820   1.631   1.798   1.397   1.773   1.619   1.885   2.060   1.628
   128.49    1.762   1.641   1.851   1.937   1.930   1.774   1.749   2.040   1.902   1.884
   112.93    1.479   1.658   1.907   1.619   1.570   1.553   1.592   1.695   1.527   1.702
    97.38    1.742   1.418   1.610   1.713   1.570   1.568   1.698   1.543   1.257   1.356
    81.82    1.834   1.926   1.949   1.737   1.818   1.515   1.812   1.557   1.507   1.961
    66.27    2.054   1.709   1.602   1.748   1.566   1.339   1.665   1.436   1.669   2.118
    50.71    1.962   2.027   1.983   1.607   1.830   2.346   2.214   2.305   2.420   1.914
    35.16    1.582   1.899   2.105   2.064   2.011   2.532   2.281   2.395   2.907   2.302
    19.60    1.894   2.298   1.815   2.015   2.173   2.373   2.664   2.825   2.682   2.925

   Height   Standard deviation at grid points for the v component:
   159.60    1.047   1.047   1.047   1.047   1.047   1.047   1.047   1.047   1.047   1.047
   144.04    1.047   1.047   1.047   1.047   1.047   1.047   1.047   1.047   1.047   1.047
   128.49    1.047   1.047   1.047   1.047   1.047   1.047   1.047   1.047   1.047   1.047
   112.93    1.047   1.047   1.047   1.047   1.047   1.047   1.047   1.047   1.047   1.047
    97.38    1.047   1.047   1.047   1.047   1.047   1.047   1.047   1.047   1.047   1.047
    81.82    1.047   1.047   1.047   1.047   1.047   1.047   1.047   1.047   1.047   1.047
    66.27    1.047   1.047   1.047   1.047   1.047   1.047   1.047   1.047   1.047   1.047
    50.71    1.047   1.047   1.047   1.047   1.047   1.047   1.047   1.047   1.047   1.047
    35.16    1.047   1.047   1.047   1.047   1.047   1.047   1.047   1.047   1.047   1.047
    19.60    1.047   1.047   1.047   1.047   1.047   1.047   1.047   1.047   1.047   1.047

   Height   Standard deviation at grid points for the w component:
   159.60    0.655   0.654   0.655   0.655   0.654   0.654   0.655   0.655   0.655   0.655
   144.04    0.655   0.654   0.655   0.655   0.655   0.655   0.655   0.655   0.655   0.654
   128.49    0.655   0.654   0.655   0.654   0.655   0.655   0.655   0.655   0.655   0.655
   112.93    0.655   0.655   0.655   0.654   0.654   0.655   0.655   0.654   0.655   0.654
    97.38    0.655   0.655   0.655   0.654   0.655   0.655   0.654   0.654   0.655   0.655
    81.82    0.655   0.655   0.655   0.655   0.655   0.655   0.654   0.655   0.655   0.655
    66.27    0.655   0.655   0.655   0.655   0.655   0.655   0.654   0.655   0.655   0.655
    50.71    0.655   0.655   0.655   0.655   0.655   0.655   0.655   0.655   0.654   0.655
    35.16    0.655   0.654   0.654   0.655   0.655   0.654   0.655   0.655   0.654   0.655
    19.60    0.655   0.655   0.655   0.655   0.655   0.655   0.655   0.655   0.655   0.655

Nyquist frequency of turbulent wind field =        10.000 Hz


Processing complete.  4.1875 CPU seconds used.
